<routes>
    <route id="route_0" edges="-319929498#3 -319929498#2" />
    <route id="route_2" edges="-319929498#3 32038440#11" />
    <vehicle id="vehicle_0" type="DEFAULT_VEHTYPE" depart="0.00" route="route_0" />
<vehicle id="vehicle_1" type="DEFAULT_VEHTYPE" depart="3.0" route="route_2" /><vehicle id="vehicle_2" type="DEFAULT_VEHTYPE" depart="6.0" route="route_0" /><vehicle id="vehicle_3" type="DEFAULT_VEHTYPE" depart="9.0" route="route_0" /><vehicle id="vehicle_4" type="DEFAULT_VEHTYPE" depart="12.0" route="route_0" /><vehicle id="vehicle_5" type="DEFAULT_VEHTYPE" depart="15.0" route="route_2" /><vehicle id="vehicle_6" type="DEFAULT_VEHTYPE" depart="18.0" route="route_2" /><vehicle id="vehicle_7" type="DEFAULT_VEHTYPE" depart="21.0" route="route_0" /><vehicle id="vehicle_8" type="DEFAULT_VEHTYPE" depart="24.0" route="route_2" /><vehicle id="vehicle_9" type="DEFAULT_VEHTYPE" depart="27.0" route="route_0" /><vehicle id="vehicle_10" type="DEFAULT_VEHTYPE" depart="30.0" route="route_0" /><vehicle id="vehicle_11" type="DEFAULT_VEHTYPE" depart="33.0" route="route_0" /><vehicle id="vehicle_12" type="DEFAULT_VEHTYPE" depart="36.0" route="route_2" /><vehicle id="vehicle_13" type="DEFAULT_VEHTYPE" depart="39.0" route="route_0" /><vehicle id="vehicle_14" type="DEFAULT_VEHTYPE" depart="42.0" route="route_2" /><vehicle id="vehicle_15" type="DEFAULT_VEHTYPE" depart="45.0" route="route_0" /><vehicle id="vehicle_16" type="DEFAULT_VEHTYPE" depart="48.0" route="route_0" /><vehicle id="vehicle_17" type="DEFAULT_VEHTYPE" depart="51.0" route="route_0" /><vehicle id="vehicle_18" type="DEFAULT_VEHTYPE" depart="54.0" route="route_2" /><vehicle id="vehicle_19" type="DEFAULT_VEHTYPE" depart="57.0" route="route_2" /><vehicle id="vehicle_20" type="DEFAULT_VEHTYPE" depart="60.0" route="route_2" /><vehicle id="vehicle_21" type="DEFAULT_VEHTYPE" depart="63.0" route="route_2" /><vehicle id="vehicle_22" type="DEFAULT_VEHTYPE" depart="66.0" route="route_2" /><vehicle id="vehicle_23" type="DEFAULT_VEHTYPE" depart="69.0" route="route_0" /><vehicle id="vehicle_24" type="DEFAULT_VEHTYPE" depart="72.0" route="route_0" /><vehicle id="vehicle_25" type="DEFAULT_VEHTYPE" depart="75.0" route="route_2" /><vehicle id="vehicle_26" type="DEFAULT_VEHTYPE" depart="78.0" route="route_2" /><vehicle id="vehicle_27" type="DEFAULT_VEHTYPE" depart="81.0" route="route_0" /><vehicle id="vehicle_28" type="DEFAULT_VEHTYPE" depart="84.0" route="route_0" /><vehicle id="vehicle_29" type="DEFAULT_VEHTYPE" depart="87.0" route="route_0" /><vehicle id="vehicle_30" type="DEFAULT_VEHTYPE" depart="90.0" route="route_2" /><vehicle id="vehicle_31" type="DEFAULT_VEHTYPE" depart="93.0" route="route_0" /><vehicle id="vehicle_32" type="DEFAULT_VEHTYPE" depart="96.0" route="route_2" /><vehicle id="vehicle_33" type="DEFAULT_VEHTYPE" depart="99.0" route="route_2" /><vehicle id="vehicle_34" type="DEFAULT_VEHTYPE" depart="102.0" route="route_2" /><vehicle id="vehicle_35" type="DEFAULT_VEHTYPE" depart="105.0" route="route_0" /><vehicle id="vehicle_36" type="DEFAULT_VEHTYPE" depart="108.0" route="route_0" /><vehicle id="vehicle_37" type="DEFAULT_VEHTYPE" depart="111.0" route="route_0" /><vehicle id="vehicle_38" type="DEFAULT_VEHTYPE" depart="114.0" route="route_0" /><vehicle id="vehicle_39" type="DEFAULT_VEHTYPE" depart="117.0" route="route_2" /><vehicle id="vehicle_40" type="DEFAULT_VEHTYPE" depart="120.0" route="route_0" /><vehicle id="vehicle_41" type="DEFAULT_VEHTYPE" depart="123.0" route="route_0" /><vehicle id="vehicle_42" type="DEFAULT_VEHTYPE" depart="126.0" route="route_2" /><vehicle id="vehicle_43" type="DEFAULT_VEHTYPE" depart="129.0" route="route_2" /><vehicle id="vehicle_44" type="DEFAULT_VEHTYPE" depart="132.0" route="route_0" /><vehicle id="vehicle_45" type="DEFAULT_VEHTYPE" depart="135.0" route="route_2" /><vehicle id="vehicle_46" type="DEFAULT_VEHTYPE" depart="138.0" route="route_0" /><vehicle id="vehicle_47" type="DEFAULT_VEHTYPE" depart="141.0" route="route_2" /><vehicle id="vehicle_48" type="DEFAULT_VEHTYPE" depart="144.0" route="route_2" /><vehicle id="vehicle_49" type="DEFAULT_VEHTYPE" depart="147.0" route="route_0" /><vehicle id="vehicle_50" type="DEFAULT_VEHTYPE" depart="150.0" route="route_0" /><vehicle id="vehicle_51" type="DEFAULT_VEHTYPE" depart="153.0" route="route_2" /><vehicle id="vehicle_52" type="DEFAULT_VEHTYPE" depart="156.0" route="route_0" /><vehicle id="vehicle_53" type="DEFAULT_VEHTYPE" depart="159.0" route="route_2" /><vehicle id="vehicle_54" type="DEFAULT_VEHTYPE" depart="162.0" route="route_0" /><vehicle id="vehicle_55" type="DEFAULT_VEHTYPE" depart="165.0" route="route_2" /><vehicle id="vehicle_56" type="DEFAULT_VEHTYPE" depart="168.0" route="route_2" /><vehicle id="vehicle_57" type="DEFAULT_VEHTYPE" depart="171.0" route="route_2" /><vehicle id="vehicle_58" type="DEFAULT_VEHTYPE" depart="174.0" route="route_2" /><vehicle id="vehicle_59" type="DEFAULT_VEHTYPE" depart="177.0" route="route_0" /><vehicle id="vehicle_60" type="DEFAULT_VEHTYPE" depart="180.0" route="route_2" /><vehicle id="vehicle_61" type="DEFAULT_VEHTYPE" depart="183.0" route="route_2" /><vehicle id="vehicle_62" type="DEFAULT_VEHTYPE" depart="186.0" route="route_0" /><vehicle id="vehicle_63" type="DEFAULT_VEHTYPE" depart="189.0" route="route_0" /><vehicle id="vehicle_64" type="DEFAULT_VEHTYPE" depart="192.0" route="route_0" /><vehicle id="vehicle_65" type="DEFAULT_VEHTYPE" depart="195.0" route="route_2" /><vehicle id="vehicle_66" type="DEFAULT_VEHTYPE" depart="198.0" route="route_0" /><vehicle id="vehicle_67" type="DEFAULT_VEHTYPE" depart="201.0" route="route_2" /><vehicle id="vehicle_68" type="DEFAULT_VEHTYPE" depart="204.0" route="route_0" /><vehicle id="vehicle_69" type="DEFAULT_VEHTYPE" depart="207.0" route="route_2" /><vehicle id="vehicle_70" type="DEFAULT_VEHTYPE" depart="210.0" route="route_0" /><vehicle id="vehicle_71" type="DEFAULT_VEHTYPE" depart="213.0" route="route_2" /><vehicle id="vehicle_72" type="DEFAULT_VEHTYPE" depart="216.0" route="route_0" /><vehicle id="vehicle_73" type="DEFAULT_VEHTYPE" depart="219.0" route="route_0" /><vehicle id="vehicle_74" type="DEFAULT_VEHTYPE" depart="222.0" route="route_0" /><vehicle id="vehicle_75" type="DEFAULT_VEHTYPE" depart="225.0" route="route_0" /><vehicle id="vehicle_76" type="DEFAULT_VEHTYPE" depart="228.0" route="route_0" /><vehicle id="vehicle_77" type="DEFAULT_VEHTYPE" depart="231.0" route="route_2" /><vehicle id="vehicle_78" type="DEFAULT_VEHTYPE" depart="234.0" route="route_0" /><vehicle id="vehicle_79" type="DEFAULT_VEHTYPE" depart="237.0" route="route_0" /><vehicle id="vehicle_80" type="DEFAULT_VEHTYPE" depart="240.0" route="route_2" /><vehicle id="vehicle_81" type="DEFAULT_VEHTYPE" depart="243.0" route="route_0" /><vehicle id="vehicle_82" type="DEFAULT_VEHTYPE" depart="246.0" route="route_2" /><vehicle id="vehicle_83" type="DEFAULT_VEHTYPE" depart="249.0" route="route_0" /><vehicle id="vehicle_84" type="DEFAULT_VEHTYPE" depart="252.0" route="route_0" /><vehicle id="vehicle_85" type="DEFAULT_VEHTYPE" depart="255.0" route="route_0" /><vehicle id="vehicle_86" type="DEFAULT_VEHTYPE" depart="258.0" route="route_0" /><vehicle id="vehicle_87" type="DEFAULT_VEHTYPE" depart="261.0" route="route_0" /><vehicle id="vehicle_88" type="DEFAULT_VEHTYPE" depart="264.0" route="route_0" /><vehicle id="vehicle_89" type="DEFAULT_VEHTYPE" depart="267.0" route="route_0" /><vehicle id="vehicle_90" type="DEFAULT_VEHTYPE" depart="270.0" route="route_2" /><vehicle id="vehicle_91" type="DEFAULT_VEHTYPE" depart="273.0" route="route_0" /><vehicle id="vehicle_92" type="DEFAULT_VEHTYPE" depart="276.0" route="route_0" /><vehicle id="vehicle_93" type="DEFAULT_VEHTYPE" depart="279.0" route="route_2" /><vehicle id="vehicle_94" type="DEFAULT_VEHTYPE" depart="282.0" route="route_2" /><vehicle id="vehicle_95" type="DEFAULT_VEHTYPE" depart="285.0" route="route_2" /><vehicle id="vehicle_96" type="DEFAULT_VEHTYPE" depart="288.0" route="route_0" /><vehicle id="vehicle_97" type="DEFAULT_VEHTYPE" depart="291.0" route="route_0" /><vehicle id="vehicle_98" type="DEFAULT_VEHTYPE" depart="294.0" route="route_2" /><vehicle id="vehicle_99" type="DEFAULT_VEHTYPE" depart="297.0" route="route_0" /><vehicle id="vehicle_100" type="DEFAULT_VEHTYPE" depart="300.0" route="route_2" /><vehicle id="vehicle_101" type="DEFAULT_VEHTYPE" depart="303.0" route="route_0" /><vehicle id="vehicle_102" type="DEFAULT_VEHTYPE" depart="306.0" route="route_0" /><vehicle id="vehicle_103" type="DEFAULT_VEHTYPE" depart="309.0" route="route_2" /><vehicle id="vehicle_104" type="DEFAULT_VEHTYPE" depart="312.0" route="route_2" /><vehicle id="vehicle_105" type="DEFAULT_VEHTYPE" depart="315.0" route="route_2" /><vehicle id="vehicle_106" type="DEFAULT_VEHTYPE" depart="318.0" route="route_2" /><vehicle id="vehicle_107" type="DEFAULT_VEHTYPE" depart="321.0" route="route_0" /><vehicle id="vehicle_108" type="DEFAULT_VEHTYPE" depart="324.0" route="route_0" /><vehicle id="vehicle_109" type="DEFAULT_VEHTYPE" depart="327.0" route="route_2" /><vehicle id="vehicle_110" type="DEFAULT_VEHTYPE" depart="330.0" route="route_0" /><vehicle id="vehicle_111" type="DEFAULT_VEHTYPE" depart="333.0" route="route_2" /><vehicle id="vehicle_112" type="DEFAULT_VEHTYPE" depart="336.0" route="route_0" /><vehicle id="vehicle_113" type="DEFAULT_VEHTYPE" depart="339.0" route="route_2" /><vehicle id="vehicle_114" type="DEFAULT_VEHTYPE" depart="342.0" route="route_2" /><vehicle id="vehicle_115" type="DEFAULT_VEHTYPE" depart="345.0" route="route_0" /><vehicle id="vehicle_116" type="DEFAULT_VEHTYPE" depart="348.0" route="route_2" /><vehicle id="vehicle_117" type="DEFAULT_VEHTYPE" depart="351.0" route="route_2" /><vehicle id="vehicle_118" type="DEFAULT_VEHTYPE" depart="354.0" route="route_2" /><vehicle id="vehicle_119" type="DEFAULT_VEHTYPE" depart="357.0" route="route_2" /><vehicle id="vehicle_120" type="DEFAULT_VEHTYPE" depart="360.0" route="route_0" /><vehicle id="vehicle_121" type="DEFAULT_VEHTYPE" depart="363.0" route="route_2" /><vehicle id="vehicle_122" type="DEFAULT_VEHTYPE" depart="366.0" route="route_2" /><vehicle id="vehicle_123" type="DEFAULT_VEHTYPE" depart="369.0" route="route_2" /><vehicle id="vehicle_124" type="DEFAULT_VEHTYPE" depart="372.0" route="route_0" /><vehicle id="vehicle_125" type="DEFAULT_VEHTYPE" depart="375.0" route="route_2" /><vehicle id="vehicle_126" type="DEFAULT_VEHTYPE" depart="378.0" route="route_0" /><vehicle id="vehicle_127" type="DEFAULT_VEHTYPE" depart="381.0" route="route_0" /><vehicle id="vehicle_128" type="DEFAULT_VEHTYPE" depart="384.0" route="route_0" /><vehicle id="vehicle_129" type="DEFAULT_VEHTYPE" depart="387.0" route="route_0" /><vehicle id="vehicle_130" type="DEFAULT_VEHTYPE" depart="390.0" route="route_2" /><vehicle id="vehicle_131" type="DEFAULT_VEHTYPE" depart="393.0" route="route_0" /><vehicle id="vehicle_132" type="DEFAULT_VEHTYPE" depart="396.0" route="route_0" /><vehicle id="vehicle_133" type="DEFAULT_VEHTYPE" depart="399.0" route="route_2" /><vehicle id="vehicle_134" type="DEFAULT_VEHTYPE" depart="402.0" route="route_0" /><vehicle id="vehicle_135" type="DEFAULT_VEHTYPE" depart="405.0" route="route_0" /><vehicle id="vehicle_136" type="DEFAULT_VEHTYPE" depart="408.0" route="route_2" /><vehicle id="vehicle_137" type="DEFAULT_VEHTYPE" depart="411.0" route="route_0" /><vehicle id="vehicle_138" type="DEFAULT_VEHTYPE" depart="414.0" route="route_0" /><vehicle id="vehicle_139" type="DEFAULT_VEHTYPE" depart="417.0" route="route_0" /><vehicle id="vehicle_140" type="DEFAULT_VEHTYPE" depart="420.0" route="route_2" /><vehicle id="vehicle_141" type="DEFAULT_VEHTYPE" depart="423.0" route="route_2" /><vehicle id="vehicle_142" type="DEFAULT_VEHTYPE" depart="426.0" route="route_0" /><vehicle id="vehicle_143" type="DEFAULT_VEHTYPE" depart="429.0" route="route_0" /><vehicle id="vehicle_144" type="DEFAULT_VEHTYPE" depart="432.0" route="route_0" /><vehicle id="vehicle_145" type="DEFAULT_VEHTYPE" depart="435.0" route="route_0" /><vehicle id="vehicle_146" type="DEFAULT_VEHTYPE" depart="438.0" route="route_2" /><vehicle id="vehicle_147" type="DEFAULT_VEHTYPE" depart="441.0" route="route_2" /><vehicle id="vehicle_148" type="DEFAULT_VEHTYPE" depart="444.0" route="route_2" /><vehicle id="vehicle_149" type="DEFAULT_VEHTYPE" depart="447.0" route="route_2" /><vehicle id="vehicle_150" type="DEFAULT_VEHTYPE" depart="450.0" route="route_2" /><vehicle id="vehicle_151" type="DEFAULT_VEHTYPE" depart="453.0" route="route_2" /><vehicle id="vehicle_152" type="DEFAULT_VEHTYPE" depart="456.0" route="route_0" /><vehicle id="vehicle_153" type="DEFAULT_VEHTYPE" depart="459.0" route="route_0" /><vehicle id="vehicle_154" type="DEFAULT_VEHTYPE" depart="462.0" route="route_0" /><vehicle id="vehicle_155" type="DEFAULT_VEHTYPE" depart="465.0" route="route_0" /><vehicle id="vehicle_156" type="DEFAULT_VEHTYPE" depart="468.0" route="route_0" /><vehicle id="vehicle_157" type="DEFAULT_VEHTYPE" depart="471.0" route="route_0" /><vehicle id="vehicle_158" type="DEFAULT_VEHTYPE" depart="474.0" route="route_2" /><vehicle id="vehicle_159" type="DEFAULT_VEHTYPE" depart="477.0" route="route_2" /><vehicle id="vehicle_160" type="DEFAULT_VEHTYPE" depart="480.0" route="route_0" /><vehicle id="vehicle_161" type="DEFAULT_VEHTYPE" depart="483.0" route="route_0" /><vehicle id="vehicle_162" type="DEFAULT_VEHTYPE" depart="486.0" route="route_0" /><vehicle id="vehicle_163" type="DEFAULT_VEHTYPE" depart="489.0" route="route_2" /><vehicle id="vehicle_164" type="DEFAULT_VEHTYPE" depart="492.0" route="route_0" /><vehicle id="vehicle_165" type="DEFAULT_VEHTYPE" depart="495.0" route="route_2" /><vehicle id="vehicle_166" type="DEFAULT_VEHTYPE" depart="498.0" route="route_2" /><vehicle id="vehicle_167" type="DEFAULT_VEHTYPE" depart="501.0" route="route_0" /><vehicle id="vehicle_168" type="DEFAULT_VEHTYPE" depart="504.0" route="route_0" /><vehicle id="vehicle_169" type="DEFAULT_VEHTYPE" depart="507.0" route="route_2" /><vehicle id="vehicle_170" type="DEFAULT_VEHTYPE" depart="510.0" route="route_0" /><vehicle id="vehicle_171" type="DEFAULT_VEHTYPE" depart="513.0" route="route_2" /><vehicle id="vehicle_172" type="DEFAULT_VEHTYPE" depart="516.0" route="route_0" /><vehicle id="vehicle_173" type="DEFAULT_VEHTYPE" depart="519.0" route="route_2" /><vehicle id="vehicle_174" type="DEFAULT_VEHTYPE" depart="522.0" route="route_0" /><vehicle id="vehicle_175" type="DEFAULT_VEHTYPE" depart="525.0" route="route_2" /><vehicle id="vehicle_176" type="DEFAULT_VEHTYPE" depart="528.0" route="route_0" /><vehicle id="vehicle_177" type="DEFAULT_VEHTYPE" depart="531.0" route="route_2" /><vehicle id="vehicle_178" type="DEFAULT_VEHTYPE" depart="534.0" route="route_0" /><vehicle id="vehicle_179" type="DEFAULT_VEHTYPE" depart="537.0" route="route_2" /><vehicle id="vehicle_180" type="DEFAULT_VEHTYPE" depart="540.0" route="route_0" /><vehicle id="vehicle_181" type="DEFAULT_VEHTYPE" depart="543.0" route="route_0" /><vehicle id="vehicle_182" type="DEFAULT_VEHTYPE" depart="546.0" route="route_0" /><vehicle id="vehicle_183" type="DEFAULT_VEHTYPE" depart="549.0" route="route_2" /><vehicle id="vehicle_184" type="DEFAULT_VEHTYPE" depart="552.0" route="route_0" /><vehicle id="vehicle_185" type="DEFAULT_VEHTYPE" depart="555.0" route="route_2" /><vehicle id="vehicle_186" type="DEFAULT_VEHTYPE" depart="558.0" route="route_0" /><vehicle id="vehicle_187" type="DEFAULT_VEHTYPE" depart="561.0" route="route_0" /><vehicle id="vehicle_188" type="DEFAULT_VEHTYPE" depart="564.0" route="route_2" /><vehicle id="vehicle_189" type="DEFAULT_VEHTYPE" depart="567.0" route="route_0" /><vehicle id="vehicle_190" type="DEFAULT_VEHTYPE" depart="570.0" route="route_2" /><vehicle id="vehicle_191" type="DEFAULT_VEHTYPE" depart="573.0" route="route_2" /><vehicle id="vehicle_192" type="DEFAULT_VEHTYPE" depart="576.0" route="route_0" /><vehicle id="vehicle_193" type="DEFAULT_VEHTYPE" depart="579.0" route="route_0" /><vehicle id="vehicle_194" type="DEFAULT_VEHTYPE" depart="582.0" route="route_0" /><vehicle id="vehicle_195" type="DEFAULT_VEHTYPE" depart="585.0" route="route_2" /><vehicle id="vehicle_196" type="DEFAULT_VEHTYPE" depart="588.0" route="route_0" /><vehicle id="vehicle_197" type="DEFAULT_VEHTYPE" depart="591.0" route="route_2" /><vehicle id="vehicle_198" type="DEFAULT_VEHTYPE" depart="594.0" route="route_0" /><vehicle id="vehicle_199" type="DEFAULT_VEHTYPE" depart="597.0" route="route_0" /><vehicle id="vehicle_200" type="DEFAULT_VEHTYPE" depart="600.0" route="route_0" /><vehicle id="vehicle_201" type="DEFAULT_VEHTYPE" depart="603.0" route="route_0" /><vehicle id="vehicle_202" type="DEFAULT_VEHTYPE" depart="606.0" route="route_2" /><vehicle id="vehicle_203" type="DEFAULT_VEHTYPE" depart="609.0" route="route_0" /><vehicle id="vehicle_204" type="DEFAULT_VEHTYPE" depart="612.0" route="route_2" /><vehicle id="vehicle_205" type="DEFAULT_VEHTYPE" depart="615.0" route="route_2" /><vehicle id="vehicle_206" type="DEFAULT_VEHTYPE" depart="618.0" route="route_0" /><vehicle id="vehicle_207" type="DEFAULT_VEHTYPE" depart="621.0" route="route_2" /><vehicle id="vehicle_208" type="DEFAULT_VEHTYPE" depart="624.0" route="route_0" /><vehicle id="vehicle_209" type="DEFAULT_VEHTYPE" depart="627.0" route="route_0" /><vehicle id="vehicle_210" type="DEFAULT_VEHTYPE" depart="630.0" route="route_0" /><vehicle id="vehicle_211" type="DEFAULT_VEHTYPE" depart="633.0" route="route_0" /><vehicle id="vehicle_212" type="DEFAULT_VEHTYPE" depart="636.0" route="route_0" /><vehicle id="vehicle_213" type="DEFAULT_VEHTYPE" depart="639.0" route="route_2" /><vehicle id="vehicle_214" type="DEFAULT_VEHTYPE" depart="642.0" route="route_2" /><vehicle id="vehicle_215" type="DEFAULT_VEHTYPE" depart="645.0" route="route_2" /><vehicle id="vehicle_216" type="DEFAULT_VEHTYPE" depart="648.0" route="route_0" /><vehicle id="vehicle_217" type="DEFAULT_VEHTYPE" depart="651.0" route="route_2" /><vehicle id="vehicle_218" type="DEFAULT_VEHTYPE" depart="654.0" route="route_0" /><vehicle id="vehicle_219" type="DEFAULT_VEHTYPE" depart="657.0" route="route_0" /><vehicle id="vehicle_220" type="DEFAULT_VEHTYPE" depart="660.0" route="route_2" /><vehicle id="vehicle_221" type="DEFAULT_VEHTYPE" depart="663.0" route="route_0" /><vehicle id="vehicle_222" type="DEFAULT_VEHTYPE" depart="666.0" route="route_0" /><vehicle id="vehicle_223" type="DEFAULT_VEHTYPE" depart="669.0" route="route_2" /><vehicle id="vehicle_224" type="DEFAULT_VEHTYPE" depart="672.0" route="route_0" /><vehicle id="vehicle_225" type="DEFAULT_VEHTYPE" depart="675.0" route="route_2" /><vehicle id="vehicle_226" type="DEFAULT_VEHTYPE" depart="678.0" route="route_0" /><vehicle id="vehicle_227" type="DEFAULT_VEHTYPE" depart="681.0" route="route_2" /><vehicle id="vehicle_228" type="DEFAULT_VEHTYPE" depart="684.0" route="route_0" /><vehicle id="vehicle_229" type="DEFAULT_VEHTYPE" depart="687.0" route="route_2" /><vehicle id="vehicle_230" type="DEFAULT_VEHTYPE" depart="690.0" route="route_0" /><vehicle id="vehicle_231" type="DEFAULT_VEHTYPE" depart="693.0" route="route_2" /><vehicle id="vehicle_232" type="DEFAULT_VEHTYPE" depart="696.0" route="route_2" /><vehicle id="vehicle_233" type="DEFAULT_VEHTYPE" depart="699.0" route="route_0" /><vehicle id="vehicle_234" type="DEFAULT_VEHTYPE" depart="702.0" route="route_2" /><vehicle id="vehicle_235" type="DEFAULT_VEHTYPE" depart="705.0" route="route_0" /><vehicle id="vehicle_236" type="DEFAULT_VEHTYPE" depart="708.0" route="route_2" /><vehicle id="vehicle_237" type="DEFAULT_VEHTYPE" depart="711.0" route="route_0" /><vehicle id="vehicle_238" type="DEFAULT_VEHTYPE" depart="714.0" route="route_2" /><vehicle id="vehicle_239" type="DEFAULT_VEHTYPE" depart="717.0" route="route_0" /><vehicle id="vehicle_240" type="DEFAULT_VEHTYPE" depart="720.0" route="route_0" /><vehicle id="vehicle_241" type="DEFAULT_VEHTYPE" depart="723.0" route="route_0" /><vehicle id="vehicle_242" type="DEFAULT_VEHTYPE" depart="726.0" route="route_2" /><vehicle id="vehicle_243" type="DEFAULT_VEHTYPE" depart="729.0" route="route_0" /><vehicle id="vehicle_244" type="DEFAULT_VEHTYPE" depart="732.0" route="route_0" /><vehicle id="vehicle_245" type="DEFAULT_VEHTYPE" depart="735.0" route="route_0" /><vehicle id="vehicle_246" type="DEFAULT_VEHTYPE" depart="738.0" route="route_2" /><vehicle id="vehicle_247" type="DEFAULT_VEHTYPE" depart="741.0" route="route_0" /><vehicle id="vehicle_248" type="DEFAULT_VEHTYPE" depart="744.0" route="route_0" /><vehicle id="vehicle_249" type="DEFAULT_VEHTYPE" depart="747.0" route="route_2" /><vehicle id="vehicle_250" type="DEFAULT_VEHTYPE" depart="750.0" route="route_2" /><vehicle id="vehicle_251" type="DEFAULT_VEHTYPE" depart="753.0" route="route_0" /><vehicle id="vehicle_252" type="DEFAULT_VEHTYPE" depart="756.0" route="route_0" /><vehicle id="vehicle_253" type="DEFAULT_VEHTYPE" depart="759.0" route="route_2" /><vehicle id="vehicle_254" type="DEFAULT_VEHTYPE" depart="762.0" route="route_0" /><vehicle id="vehicle_255" type="DEFAULT_VEHTYPE" depart="765.0" route="route_2" /><vehicle id="vehicle_256" type="DEFAULT_VEHTYPE" depart="768.0" route="route_2" /><vehicle id="vehicle_257" type="DEFAULT_VEHTYPE" depart="771.0" route="route_2" /><vehicle id="vehicle_258" type="DEFAULT_VEHTYPE" depart="774.0" route="route_2" /><vehicle id="vehicle_259" type="DEFAULT_VEHTYPE" depart="777.0" route="route_2" /><vehicle id="vehicle_260" type="DEFAULT_VEHTYPE" depart="780.0" route="route_2" /><vehicle id="vehicle_261" type="DEFAULT_VEHTYPE" depart="783.0" route="route_2" /><vehicle id="vehicle_262" type="DEFAULT_VEHTYPE" depart="786.0" route="route_2" /><vehicle id="vehicle_263" type="DEFAULT_VEHTYPE" depart="789.0" route="route_2" /><vehicle id="vehicle_264" type="DEFAULT_VEHTYPE" depart="792.0" route="route_0" /><vehicle id="vehicle_265" type="DEFAULT_VEHTYPE" depart="795.0" route="route_2" /><vehicle id="vehicle_266" type="DEFAULT_VEHTYPE" depart="798.0" route="route_0" /><vehicle id="vehicle_267" type="DEFAULT_VEHTYPE" depart="801.0" route="route_2" /><vehicle id="vehicle_268" type="DEFAULT_VEHTYPE" depart="804.0" route="route_2" /><vehicle id="vehicle_269" type="DEFAULT_VEHTYPE" depart="807.0" route="route_0" /><vehicle id="vehicle_270" type="DEFAULT_VEHTYPE" depart="810.0" route="route_2" /><vehicle id="vehicle_271" type="DEFAULT_VEHTYPE" depart="813.0" route="route_2" /><vehicle id="vehicle_272" type="DEFAULT_VEHTYPE" depart="816.0" route="route_2" /><vehicle id="vehicle_273" type="DEFAULT_VEHTYPE" depart="819.0" route="route_0" /><vehicle id="vehicle_274" type="DEFAULT_VEHTYPE" depart="822.0" route="route_2" /><vehicle id="vehicle_275" type="DEFAULT_VEHTYPE" depart="825.0" route="route_0" /><vehicle id="vehicle_276" type="DEFAULT_VEHTYPE" depart="828.0" route="route_2" /><vehicle id="vehicle_277" type="DEFAULT_VEHTYPE" depart="831.0" route="route_2" /><vehicle id="vehicle_278" type="DEFAULT_VEHTYPE" depart="834.0" route="route_0" /><vehicle id="vehicle_279" type="DEFAULT_VEHTYPE" depart="837.0" route="route_2" /><vehicle id="vehicle_280" type="DEFAULT_VEHTYPE" depart="840.0" route="route_2" /><vehicle id="vehicle_281" type="DEFAULT_VEHTYPE" depart="843.0" route="route_2" /><vehicle id="vehicle_282" type="DEFAULT_VEHTYPE" depart="846.0" route="route_2" /><vehicle id="vehicle_283" type="DEFAULT_VEHTYPE" depart="849.0" route="route_0" /><vehicle id="vehicle_284" type="DEFAULT_VEHTYPE" depart="852.0" route="route_2" /><vehicle id="vehicle_285" type="DEFAULT_VEHTYPE" depart="855.0" route="route_2" /><vehicle id="vehicle_286" type="DEFAULT_VEHTYPE" depart="858.0" route="route_0" /><vehicle id="vehicle_287" type="DEFAULT_VEHTYPE" depart="861.0" route="route_2" /><vehicle id="vehicle_288" type="DEFAULT_VEHTYPE" depart="864.0" route="route_2" /><vehicle id="vehicle_289" type="DEFAULT_VEHTYPE" depart="867.0" route="route_2" /><vehicle id="vehicle_290" type="DEFAULT_VEHTYPE" depart="870.0" route="route_2" /><vehicle id="vehicle_291" type="DEFAULT_VEHTYPE" depart="873.0" route="route_2" /><vehicle id="vehicle_292" type="DEFAULT_VEHTYPE" depart="876.0" route="route_2" /><vehicle id="vehicle_293" type="DEFAULT_VEHTYPE" depart="879.0" route="route_2" /><vehicle id="vehicle_294" type="DEFAULT_VEHTYPE" depart="882.0" route="route_0" /><vehicle id="vehicle_295" type="DEFAULT_VEHTYPE" depart="885.0" route="route_2" /><vehicle id="vehicle_296" type="DEFAULT_VEHTYPE" depart="888.0" route="route_0" /><vehicle id="vehicle_297" type="DEFAULT_VEHTYPE" depart="891.0" route="route_0" /><vehicle id="vehicle_298" type="DEFAULT_VEHTYPE" depart="894.0" route="route_2" /><vehicle id="vehicle_299" type="DEFAULT_VEHTYPE" depart="897.0" route="route_0" /></routes>