<routes>
    <route id="route_0" edges="-319929498#3 -319929498#2"/>
    <route id="route_2" edges="-319929498#3 32038440#11"/>
    <vehicle id="vehicle_0" type="DEFAULT_VEHTYPE" depart="0.00" route="route_0"/>
    <vehicle id="vehicle_1" type="DEFAULT_VEHTYPE" depart="1.05" route="route_2"/>
    <vehicle id="vehicle_2" type="DEFAULT_VEHTYPE" depart="2.1" route="route_2"/>
    <vehicle id="vehicle_3" type="DEFAULT_VEHTYPE" depart="3.1500000000000004" route="route_2"/>
    <vehicle id="vehicle_4" type="DEFAULT_VEHTYPE" depart="4.2" route="route_0"/>
    <vehicle id="vehicle_5" type="DEFAULT_VEHTYPE" depart="5.25" route="route_2"/>
    <vehicle id="vehicle_6" type="DEFAULT_VEHTYPE" depart="6.3" route="route_2"/>
    <vehicle id="vehicle_7" type="DEFAULT_VEHTYPE" depart="7.35" route="route_2"/>
    <vehicle id="vehicle_8" type="DEFAULT_VEHTYPE" depart="8.4" route="route_2"/>
    <vehicle id="vehicle_9" type="DEFAULT_VEHTYPE" depart="9.450000000000001" route="route_2"/>
    <vehicle id="vehicle_10" type="DEFAULT_VEHTYPE" depart="10.500000000000002" route="route_2"/>
    <vehicle id="vehicle_11" type="DEFAULT_VEHTYPE" depart="11.550000000000002" route="route_2"/>
    <vehicle id="vehicle_12" type="DEFAULT_VEHTYPE" depart="12.600000000000003" route="route_2"/>
    <vehicle id="vehicle_13" type="DEFAULT_VEHTYPE" depart="13.650000000000004" route="route_0"/>
    <vehicle id="vehicle_14" type="DEFAULT_VEHTYPE" depart="14.700000000000005" route="route_2"/>
    <vehicle id="vehicle_15" type="DEFAULT_VEHTYPE" depart="15.750000000000005" route="route_2"/>
    <vehicle id="vehicle_16" type="DEFAULT_VEHTYPE" depart="16.800000000000004" route="route_2"/>
    <vehicle id="vehicle_17" type="DEFAULT_VEHTYPE" depart="17.850000000000005" route="route_2"/>
    <vehicle id="vehicle_18" type="DEFAULT_VEHTYPE" depart="18.900000000000006" route="route_0"/>
    <vehicle id="vehicle_19" type="DEFAULT_VEHTYPE" depart="19.950000000000006" route="route_2"/>
    <vehicle id="vehicle_20" type="DEFAULT_VEHTYPE" depart="21.000000000000007" route="route_2"/>
    <vehicle id="vehicle_21" type="DEFAULT_VEHTYPE" depart="22.050000000000008" route="route_0"/>
    <vehicle id="vehicle_22" type="DEFAULT_VEHTYPE" depart="23.10000000000001" route="route_0"/>
    <vehicle id="vehicle_23" type="DEFAULT_VEHTYPE" depart="24.15000000000001" route="route_0"/>
    <vehicle id="vehicle_24" type="DEFAULT_VEHTYPE" depart="25.20000000000001" route="route_2"/>
    <vehicle id="vehicle_25" type="DEFAULT_VEHTYPE" depart="26.25000000000001" route="route_2"/>
    <vehicle id="vehicle_26" type="DEFAULT_VEHTYPE" depart="27.30000000000001" route="route_2"/>
    <vehicle id="vehicle_27" type="DEFAULT_VEHTYPE" depart="28.350000000000012" route="route_0"/>
    <vehicle id="vehicle_28" type="DEFAULT_VEHTYPE" depart="29.400000000000013" route="route_2"/>
    <vehicle id="vehicle_29" type="DEFAULT_VEHTYPE" depart="30.450000000000014" route="route_0"/>
    <vehicle id="vehicle_30" type="DEFAULT_VEHTYPE" depart="31.500000000000014" route="route_0"/>
    <vehicle id="vehicle_31" type="DEFAULT_VEHTYPE" depart="32.55000000000001" route="route_0"/>
    <vehicle id="vehicle_32" type="DEFAULT_VEHTYPE" depart="33.60000000000001" route="route_0"/>
    <vehicle id="vehicle_33" type="DEFAULT_VEHTYPE" depart="34.650000000000006" route="route_2"/>
    <vehicle id="vehicle_34" type="DEFAULT_VEHTYPE" depart="35.7" route="route_2"/>
    <vehicle id="vehicle_35" type="DEFAULT_VEHTYPE" depart="36.75" route="route_2"/>
    <vehicle id="vehicle_36" type="DEFAULT_VEHTYPE" depart="37.8" route="route_0"/>
    <vehicle id="vehicle_37" type="DEFAULT_VEHTYPE" depart="38.849999999999994" route="route_2"/>
    <vehicle id="vehicle_38" type="DEFAULT_VEHTYPE" depart="39.89999999999999" route="route_0"/>
    <vehicle id="vehicle_39" type="DEFAULT_VEHTYPE" depart="40.94999999999999" route="route_0"/>
    <vehicle id="vehicle_40" type="DEFAULT_VEHTYPE" depart="41.999999999999986" route="route_2"/>
    <vehicle id="vehicle_41" type="DEFAULT_VEHTYPE" depart="43.04999999999998" route="route_2"/>
    <vehicle id="vehicle_42" type="DEFAULT_VEHTYPE" depart="44.09999999999998" route="route_0"/>
    <vehicle id="vehicle_43" type="DEFAULT_VEHTYPE" depart="45.14999999999998" route="route_0"/>
    <vehicle id="vehicle_44" type="DEFAULT_VEHTYPE" depart="46.199999999999974" route="route_2"/>
    <vehicle id="vehicle_45" type="DEFAULT_VEHTYPE" depart="47.24999999999997" route="route_0"/>
    <vehicle id="vehicle_46" type="DEFAULT_VEHTYPE" depart="48.29999999999997" route="route_2"/>
    <vehicle id="vehicle_47" type="DEFAULT_VEHTYPE" depart="49.349999999999966" route="route_0"/>
    <vehicle id="vehicle_48" type="DEFAULT_VEHTYPE" depart="50.39999999999996" route="route_2"/>
    <vehicle id="vehicle_49" type="DEFAULT_VEHTYPE" depart="51.44999999999996" route="route_0"/>
    <vehicle id="vehicle_50" type="DEFAULT_VEHTYPE" depart="52.49999999999996" route="route_2"/>
    <vehicle id="vehicle_51" type="DEFAULT_VEHTYPE" depart="53.549999999999955" route="route_2"/>
    <vehicle id="vehicle_52" type="DEFAULT_VEHTYPE" depart="54.59999999999995" route="route_2"/>
    <vehicle id="vehicle_53" type="DEFAULT_VEHTYPE" depart="55.64999999999995" route="route_0"/>
    <vehicle id="vehicle_54" type="DEFAULT_VEHTYPE" depart="56.699999999999946" route="route_2"/>
    <vehicle id="vehicle_55" type="DEFAULT_VEHTYPE" depart="57.74999999999994" route="route_0"/>
    <vehicle id="vehicle_56" type="DEFAULT_VEHTYPE" depart="58.79999999999994" route="route_0"/>
    <vehicle id="vehicle_57" type="DEFAULT_VEHTYPE" depart="59.84999999999994" route="route_2"/>
    <vehicle id="vehicle_58" type="DEFAULT_VEHTYPE" depart="60.899999999999935" route="route_2"/>
    <vehicle id="vehicle_59" type="DEFAULT_VEHTYPE" depart="61.94999999999993" route="route_2"/>
    <vehicle id="vehicle_60" type="DEFAULT_VEHTYPE" depart="62.99999999999993" route="route_2"/>
    <vehicle id="vehicle_61" type="DEFAULT_VEHTYPE" depart="64.04999999999993" route="route_0"/>
    <vehicle id="vehicle_62" type="DEFAULT_VEHTYPE" depart="65.09999999999992" route="route_0"/>
    <vehicle id="vehicle_63" type="DEFAULT_VEHTYPE" depart="66.14999999999992" route="route_2"/>
    <vehicle id="vehicle_64" type="DEFAULT_VEHTYPE" depart="67.19999999999992" route="route_0"/>
    <vehicle id="vehicle_65" type="DEFAULT_VEHTYPE" depart="68.24999999999991" route="route_2"/>
    <vehicle id="vehicle_66" type="DEFAULT_VEHTYPE" depart="69.29999999999991" route="route_2"/>
    <vehicle id="vehicle_67" type="DEFAULT_VEHTYPE" depart="70.34999999999991" route="route_0"/>
    <vehicle id="vehicle_68" type="DEFAULT_VEHTYPE" depart="71.3999999999999" route="route_2"/>
    <vehicle id="vehicle_69" type="DEFAULT_VEHTYPE" depart="72.4499999999999" route="route_0"/>
    <vehicle id="vehicle_70" type="DEFAULT_VEHTYPE" depart="73.4999999999999" route="route_0"/>
    <vehicle id="vehicle_71" type="DEFAULT_VEHTYPE" depart="74.5499999999999" route="route_2"/>
    <vehicle id="vehicle_72" type="DEFAULT_VEHTYPE" depart="75.5999999999999" route="route_0"/>
    <vehicle id="vehicle_73" type="DEFAULT_VEHTYPE" depart="76.64999999999989" route="route_0"/>
    <vehicle id="vehicle_74" type="DEFAULT_VEHTYPE" depart="77.69999999999989" route="route_0"/>
    <vehicle id="vehicle_75" type="DEFAULT_VEHTYPE" depart="78.74999999999989" route="route_2"/>
    <vehicle id="vehicle_76" type="DEFAULT_VEHTYPE" depart="79.79999999999988" route="route_2"/>
    <vehicle id="vehicle_77" type="DEFAULT_VEHTYPE" depart="80.84999999999988" route="route_2"/>
    <vehicle id="vehicle_78" type="DEFAULT_VEHTYPE" depart="81.89999999999988" route="route_0"/>
    <vehicle id="vehicle_79" type="DEFAULT_VEHTYPE" depart="82.94999999999987" route="route_2"/>
    <vehicle id="vehicle_80" type="DEFAULT_VEHTYPE" depart="83.99999999999987" route="route_0"/>
    <vehicle id="vehicle_81" type="DEFAULT_VEHTYPE" depart="85.04999999999987" route="route_0"/>
    <vehicle id="vehicle_82" type="DEFAULT_VEHTYPE" depart="86.09999999999987" route="route_2"/>
    <vehicle id="vehicle_83" type="DEFAULT_VEHTYPE" depart="87.14999999999986" route="route_2"/>
    <vehicle id="vehicle_84" type="DEFAULT_VEHTYPE" depart="88.19999999999986" route="route_2"/>
    <vehicle id="vehicle_85" type="DEFAULT_VEHTYPE" depart="89.24999999999986" route="route_0"/>
    <vehicle id="vehicle_86" type="DEFAULT_VEHTYPE" depart="90.29999999999986" route="route_2"/>
    <vehicle id="vehicle_87" type="DEFAULT_VEHTYPE" depart="91.34999999999985" route="route_0"/>
    <vehicle id="vehicle_88" type="DEFAULT_VEHTYPE" depart="92.39999999999985" route="route_2"/>
    <vehicle id="vehicle_89" type="DEFAULT_VEHTYPE" depart="93.44999999999985" route="route_2"/>
    <vehicle id="vehicle_90" type="DEFAULT_VEHTYPE" depart="94.49999999999984" route="route_0"/>
    <vehicle id="vehicle_91" type="DEFAULT_VEHTYPE" depart="95.54999999999984" route="route_0"/>
    <vehicle id="vehicle_92" type="DEFAULT_VEHTYPE" depart="96.59999999999984" route="route_2"/>
    <vehicle id="vehicle_93" type="DEFAULT_VEHTYPE" depart="97.64999999999984" route="route_2"/>
    <vehicle id="vehicle_94" type="DEFAULT_VEHTYPE" depart="98.69999999999983" route="route_0"/>
    <vehicle id="vehicle_95" type="DEFAULT_VEHTYPE" depart="99.74999999999983" route="route_0"/>
    <vehicle id="vehicle_96" type="DEFAULT_VEHTYPE" depart="100.79999999999983" route="route_0"/>
    <vehicle id="vehicle_97" type="DEFAULT_VEHTYPE" depart="101.84999999999982" route="route_0"/>
    <vehicle id="vehicle_98" type="DEFAULT_VEHTYPE" depart="102.89999999999982" route="route_2"/>
    <vehicle id="vehicle_99" type="DEFAULT_VEHTYPE" depart="103.94999999999982" route="route_0"/>
    <vehicle id="vehicle_100" type="DEFAULT_VEHTYPE" depart="104.99999999999982" route="route_0"/>
    <vehicle id="vehicle_101" type="DEFAULT_VEHTYPE" depart="106.04999999999981" route="route_2"/>
    <vehicle id="vehicle_102" type="DEFAULT_VEHTYPE" depart="107.09999999999981" route="route_0"/>
    <vehicle id="vehicle_103" type="DEFAULT_VEHTYPE" depart="108.1499999999998" route="route_2"/>
    <vehicle id="vehicle_104" type="DEFAULT_VEHTYPE" depart="109.1999999999998" route="route_2"/>
    <vehicle id="vehicle_105" type="DEFAULT_VEHTYPE" depart="110.2499999999998" route="route_0"/>
    <vehicle id="vehicle_106" type="DEFAULT_VEHTYPE" depart="111.2999999999998" route="route_2"/>
    <vehicle id="vehicle_107" type="DEFAULT_VEHTYPE" depart="112.3499999999998" route="route_2"/>
    <vehicle id="vehicle_108" type="DEFAULT_VEHTYPE" depart="113.39999999999979" route="route_2"/>
    <vehicle id="vehicle_109" type="DEFAULT_VEHTYPE" depart="114.44999999999979" route="route_0"/>
    <vehicle id="vehicle_110" type="DEFAULT_VEHTYPE" depart="115.49999999999979" route="route_0"/>
    <vehicle id="vehicle_111" type="DEFAULT_VEHTYPE" depart="116.54999999999978" route="route_0"/>
    <vehicle id="vehicle_112" type="DEFAULT_VEHTYPE" depart="117.59999999999978" route="route_0"/>
    <vehicle id="vehicle_113" type="DEFAULT_VEHTYPE" depart="118.64999999999978" route="route_0"/>
    <vehicle id="vehicle_114" type="DEFAULT_VEHTYPE" depart="119.69999999999978" route="route_0"/>
    <vehicle id="vehicle_115" type="DEFAULT_VEHTYPE" depart="120.74999999999977" route="route_2"/>
    <vehicle id="vehicle_116" type="DEFAULT_VEHTYPE" depart="121.79999999999977" route="route_2"/>
    <vehicle id="vehicle_117" type="DEFAULT_VEHTYPE" depart="122.84999999999977" route="route_0"/>
    <vehicle id="vehicle_118" type="DEFAULT_VEHTYPE" depart="123.89999999999976" route="route_0"/>
    <vehicle id="vehicle_119" type="DEFAULT_VEHTYPE" depart="124.94999999999976" route="route_2"/>
    <vehicle id="vehicle_120" type="DEFAULT_VEHTYPE" depart="125.99999999999976" route="route_2"/>
    <vehicle id="vehicle_121" type="DEFAULT_VEHTYPE" depart="127.04999999999976" route="route_0"/>
    <vehicle id="vehicle_122" type="DEFAULT_VEHTYPE" depart="128.09999999999977" route="route_0"/>
    <vehicle id="vehicle_123" type="DEFAULT_VEHTYPE" depart="129.14999999999978" route="route_0"/>
    <vehicle id="vehicle_124" type="DEFAULT_VEHTYPE" depart="130.1999999999998" route="route_2"/>
    <vehicle id="vehicle_125" type="DEFAULT_VEHTYPE" depart="131.2499999999998" route="route_0"/>
    <vehicle id="vehicle_126" type="DEFAULT_VEHTYPE" depart="132.2999999999998" route="route_2"/>
    <vehicle id="vehicle_127" type="DEFAULT_VEHTYPE" depart="133.34999999999982" route="route_2"/>
    <vehicle id="vehicle_128" type="DEFAULT_VEHTYPE" depart="134.39999999999984" route="route_0"/>
    <vehicle id="vehicle_129" type="DEFAULT_VEHTYPE" depart="135.44999999999985" route="route_2"/>
    <vehicle id="vehicle_130" type="DEFAULT_VEHTYPE" depart="136.49999999999986" route="route_2"/>
    <vehicle id="vehicle_131" type="DEFAULT_VEHTYPE" depart="137.54999999999987" route="route_0"/>
    <vehicle id="vehicle_132" type="DEFAULT_VEHTYPE" depart="138.59999999999988" route="route_2"/>
    <vehicle id="vehicle_133" type="DEFAULT_VEHTYPE" depart="139.6499999999999" route="route_2"/>
    <vehicle id="vehicle_134" type="DEFAULT_VEHTYPE" depart="140.6999999999999" route="route_0"/>
    <vehicle id="vehicle_135" type="DEFAULT_VEHTYPE" depart="141.74999999999991" route="route_2"/>
    <vehicle id="vehicle_136" type="DEFAULT_VEHTYPE" depart="142.79999999999993" route="route_0"/>
    <vehicle id="vehicle_137" type="DEFAULT_VEHTYPE" depart="143.84999999999994" route="route_2"/>
    <vehicle id="vehicle_138" type="DEFAULT_VEHTYPE" depart="144.89999999999995" route="route_0"/>
    <vehicle id="vehicle_139" type="DEFAULT_VEHTYPE" depart="145.94999999999996" route="route_2"/>
    <vehicle id="vehicle_140" type="DEFAULT_VEHTYPE" depart="146.99999999999997" route="route_0"/>
    <vehicle id="vehicle_141" type="DEFAULT_VEHTYPE" depart="148.04999999999998" route="route_0"/>
    <vehicle id="vehicle_142" type="DEFAULT_VEHTYPE" depart="149.1" route="route_0"/>
    <vehicle id="vehicle_143" type="DEFAULT_VEHTYPE" depart="150.15" route="route_2"/>
    <vehicle id="vehicle_144" type="DEFAULT_VEHTYPE" depart="151.20000000000002" route="route_2"/>
    <vehicle id="vehicle_145" type="DEFAULT_VEHTYPE" depart="152.25000000000003" route="route_2"/>
    <vehicle id="vehicle_146" type="DEFAULT_VEHTYPE" depart="153.30000000000004" route="route_2"/>
    <vehicle id="vehicle_147" type="DEFAULT_VEHTYPE" depart="154.35000000000005" route="route_0"/>
    <vehicle id="vehicle_148" type="DEFAULT_VEHTYPE" depart="155.40000000000006" route="route_0"/>
    <vehicle id="vehicle_149" type="DEFAULT_VEHTYPE" depart="156.45000000000007" route="route_2"/>
    <vehicle id="vehicle_150" type="DEFAULT_VEHTYPE" depart="157.50000000000009" route="route_0"/>
    <vehicle id="vehicle_151" type="DEFAULT_VEHTYPE" depart="158.5500000000001" route="route_0"/>
    <vehicle id="vehicle_152" type="DEFAULT_VEHTYPE" depart="159.6000000000001" route="route_0"/>
    <vehicle id="vehicle_153" type="DEFAULT_VEHTYPE" depart="160.65000000000012" route="route_2"/>
    <vehicle id="vehicle_154" type="DEFAULT_VEHTYPE" depart="161.70000000000013" route="route_2"/>
    <vehicle id="vehicle_155" type="DEFAULT_VEHTYPE" depart="162.75000000000014" route="route_2"/>
    <vehicle id="vehicle_156" type="DEFAULT_VEHTYPE" depart="163.80000000000015" route="route_2"/>
    <vehicle id="vehicle_157" type="DEFAULT_VEHTYPE" depart="164.85000000000016" route="route_0"/>
    <vehicle id="vehicle_158" type="DEFAULT_VEHTYPE" depart="165.90000000000018" route="route_0"/>
    <vehicle id="vehicle_159" type="DEFAULT_VEHTYPE" depart="166.9500000000002" route="route_2"/>
    <vehicle id="vehicle_160" type="DEFAULT_VEHTYPE" depart="168.0000000000002" route="route_2"/>
    <vehicle id="vehicle_161" type="DEFAULT_VEHTYPE" depart="169.0500000000002" route="route_2"/>
    <vehicle id="vehicle_162" type="DEFAULT_VEHTYPE" depart="170.10000000000022" route="route_0"/>
    <vehicle id="vehicle_163" type="DEFAULT_VEHTYPE" depart="171.15000000000023" route="route_2"/>
    <vehicle id="vehicle_164" type="DEFAULT_VEHTYPE" depart="172.20000000000024" route="route_0"/>
    <vehicle id="vehicle_165" type="DEFAULT_VEHTYPE" depart="173.25000000000026" route="route_0"/>
    <vehicle id="vehicle_166" type="DEFAULT_VEHTYPE" depart="174.30000000000027" route="route_0"/>
    <vehicle id="vehicle_167" type="DEFAULT_VEHTYPE" depart="175.35000000000028" route="route_2"/>
    <vehicle id="vehicle_168" type="DEFAULT_VEHTYPE" depart="176.4000000000003" route="route_2"/>
    <vehicle id="vehicle_169" type="DEFAULT_VEHTYPE" depart="177.4500000000003" route="route_2"/>
    <vehicle id="vehicle_170" type="DEFAULT_VEHTYPE" depart="178.5000000000003" route="route_0"/>
    <vehicle id="vehicle_171" type="DEFAULT_VEHTYPE" depart="179.55000000000032" route="route_0"/>
    <vehicle id="vehicle_172" type="DEFAULT_VEHTYPE" depart="180.60000000000034" route="route_0"/>
    <vehicle id="vehicle_173" type="DEFAULT_VEHTYPE" depart="181.65000000000035" route="route_2"/>
    <vehicle id="vehicle_174" type="DEFAULT_VEHTYPE" depart="182.70000000000036" route="route_0"/>
    <vehicle id="vehicle_175" type="DEFAULT_VEHTYPE" depart="183.75000000000037" route="route_0"/>
    <vehicle id="vehicle_176" type="DEFAULT_VEHTYPE" depart="184.80000000000038" route="route_2"/>
    <vehicle id="vehicle_177" type="DEFAULT_VEHTYPE" depart="185.8500000000004" route="route_2"/>
    <vehicle id="vehicle_178" type="DEFAULT_VEHTYPE" depart="186.9000000000004" route="route_0"/>
    <vehicle id="vehicle_179" type="DEFAULT_VEHTYPE" depart="187.95000000000041" route="route_0"/>
    <vehicle id="vehicle_180" type="DEFAULT_VEHTYPE" depart="189.00000000000043" route="route_2"/>
    <vehicle id="vehicle_181" type="DEFAULT_VEHTYPE" depart="190.05000000000044" route="route_2"/>
    <vehicle id="vehicle_182" type="DEFAULT_VEHTYPE" depart="191.10000000000045" route="route_2"/>
    <vehicle id="vehicle_183" type="DEFAULT_VEHTYPE" depart="192.15000000000046" route="route_0"/>
    <vehicle id="vehicle_184" type="DEFAULT_VEHTYPE" depart="193.20000000000047" route="route_0"/>
    <vehicle id="vehicle_185" type="DEFAULT_VEHTYPE" depart="194.25000000000048" route="route_2"/>
    <vehicle id="vehicle_186" type="DEFAULT_VEHTYPE" depart="195.3000000000005" route="route_0"/>
    <vehicle id="vehicle_187" type="DEFAULT_VEHTYPE" depart="196.3500000000005" route="route_2"/>
    <vehicle id="vehicle_188" type="DEFAULT_VEHTYPE" depart="197.40000000000052" route="route_2"/>
    <vehicle id="vehicle_189" type="DEFAULT_VEHTYPE" depart="198.45000000000053" route="route_0"/>
    <vehicle id="vehicle_190" type="DEFAULT_VEHTYPE" depart="199.50000000000054" route="route_2"/>
    <vehicle id="vehicle_191" type="DEFAULT_VEHTYPE" depart="200.55000000000055" route="route_2"/>
    <vehicle id="vehicle_192" type="DEFAULT_VEHTYPE" depart="201.60000000000056" route="route_2"/>
    <vehicle id="vehicle_193" type="DEFAULT_VEHTYPE" depart="202.65000000000057" route="route_0"/>
    <vehicle id="vehicle_194" type="DEFAULT_VEHTYPE" depart="203.70000000000059" route="route_0"/>
    <vehicle id="vehicle_195" type="DEFAULT_VEHTYPE" depart="204.7500000000006" route="route_2"/>
    <vehicle id="vehicle_196" type="DEFAULT_VEHTYPE" depart="205.8000000000006" route="route_0"/>
    <vehicle id="vehicle_197" type="DEFAULT_VEHTYPE" depart="206.85000000000062" route="route_0"/>
    <vehicle id="vehicle_198" type="DEFAULT_VEHTYPE" depart="207.90000000000063" route="route_2"/>
    <vehicle id="vehicle_199" type="DEFAULT_VEHTYPE" depart="208.95000000000064" route="route_2"/>
    <vehicle id="vehicle_200" type="DEFAULT_VEHTYPE" depart="210.00000000000065" route="route_2"/>
    <vehicle id="vehicle_201" type="DEFAULT_VEHTYPE" depart="211.05000000000067" route="route_2"/>
    <vehicle id="vehicle_202" type="DEFAULT_VEHTYPE" depart="212.10000000000068" route="route_2"/>
    <vehicle id="vehicle_203" type="DEFAULT_VEHTYPE" depart="213.1500000000007" route="route_0"/>
    <vehicle id="vehicle_204" type="DEFAULT_VEHTYPE" depart="214.2000000000007" route="route_0"/>
    <vehicle id="vehicle_205" type="DEFAULT_VEHTYPE" depart="215.2500000000007" route="route_2"/>
    <vehicle id="vehicle_206" type="DEFAULT_VEHTYPE" depart="216.30000000000072" route="route_2"/>
    <vehicle id="vehicle_207" type="DEFAULT_VEHTYPE" depart="217.35000000000073" route="route_0"/>
    <vehicle id="vehicle_208" type="DEFAULT_VEHTYPE" depart="218.40000000000074" route="route_0"/>
    <vehicle id="vehicle_209" type="DEFAULT_VEHTYPE" depart="219.45000000000076" route="route_0"/>
    <vehicle id="vehicle_210" type="DEFAULT_VEHTYPE" depart="220.50000000000077" route="route_0"/>
    <vehicle id="vehicle_211" type="DEFAULT_VEHTYPE" depart="221.55000000000078" route="route_2"/>
    <vehicle id="vehicle_212" type="DEFAULT_VEHTYPE" depart="222.6000000000008" route="route_2"/>
    <vehicle id="vehicle_213" type="DEFAULT_VEHTYPE" depart="223.6500000000008" route="route_0"/>
    <vehicle id="vehicle_214" type="DEFAULT_VEHTYPE" depart="224.7000000000008" route="route_2"/>
    <vehicle id="vehicle_215" type="DEFAULT_VEHTYPE" depart="225.75000000000082" route="route_2"/>
    <vehicle id="vehicle_216" type="DEFAULT_VEHTYPE" depart="226.80000000000084" route="route_2"/>
    <vehicle id="vehicle_217" type="DEFAULT_VEHTYPE" depart="227.85000000000085" route="route_0"/>
    <vehicle id="vehicle_218" type="DEFAULT_VEHTYPE" depart="228.90000000000086" route="route_0"/>
    <vehicle id="vehicle_219" type="DEFAULT_VEHTYPE" depart="229.95000000000087" route="route_2"/>
    <vehicle id="vehicle_220" type="DEFAULT_VEHTYPE" depart="231.00000000000088" route="route_2"/>
    <vehicle id="vehicle_221" type="DEFAULT_VEHTYPE" depart="232.0500000000009" route="route_0"/>
    <vehicle id="vehicle_222" type="DEFAULT_VEHTYPE" depart="233.1000000000009" route="route_2"/>
    <vehicle id="vehicle_223" type="DEFAULT_VEHTYPE" depart="234.15000000000092" route="route_0"/>
    <vehicle id="vehicle_224" type="DEFAULT_VEHTYPE" depart="235.20000000000093" route="route_0"/>
    <vehicle id="vehicle_225" type="DEFAULT_VEHTYPE" depart="236.25000000000094" route="route_0"/>
    <vehicle id="vehicle_226" type="DEFAULT_VEHTYPE" depart="237.30000000000095" route="route_2"/>
    <vehicle id="vehicle_227" type="DEFAULT_VEHTYPE" depart="238.35000000000096" route="route_0"/>
    <vehicle id="vehicle_228" type="DEFAULT_VEHTYPE" depart="239.40000000000097" route="route_0"/>
    <vehicle id="vehicle_229" type="DEFAULT_VEHTYPE" depart="240.45000000000098" route="route_2"/>
    <vehicle id="vehicle_230" type="DEFAULT_VEHTYPE" depart="241.500000000001" route="route_2"/>
    <vehicle id="vehicle_231" type="DEFAULT_VEHTYPE" depart="242.550000000001" route="route_0"/>
    <vehicle id="vehicle_232" type="DEFAULT_VEHTYPE" depart="243.60000000000102" route="route_2"/>
    <vehicle id="vehicle_233" type="DEFAULT_VEHTYPE" depart="244.65000000000103" route="route_0"/>
    <vehicle id="vehicle_234" type="DEFAULT_VEHTYPE" depart="245.70000000000104" route="route_2"/>
    <vehicle id="vehicle_235" type="DEFAULT_VEHTYPE" depart="246.75000000000105" route="route_0"/>
    <vehicle id="vehicle_236" type="DEFAULT_VEHTYPE" depart="247.80000000000106" route="route_0"/>
    <vehicle id="vehicle_237" type="DEFAULT_VEHTYPE" depart="248.85000000000107" route="route_0"/>
    <vehicle id="vehicle_238" type="DEFAULT_VEHTYPE" depart="249.90000000000109" route="route_0"/>
    <vehicle id="vehicle_239" type="DEFAULT_VEHTYPE" depart="250.9500000000011" route="route_0"/>
    <vehicle id="vehicle_240" type="DEFAULT_VEHTYPE" depart="252.0000000000011" route="route_0"/>
    <vehicle id="vehicle_241" type="DEFAULT_VEHTYPE" depart="253.05000000000112" route="route_2"/>
    <vehicle id="vehicle_242" type="DEFAULT_VEHTYPE" depart="254.10000000000113" route="route_2"/>
    <vehicle id="vehicle_243" type="DEFAULT_VEHTYPE" depart="255.15000000000114" route="route_0"/>
    <vehicle id="vehicle_244" type="DEFAULT_VEHTYPE" depart="256.2000000000011" route="route_2"/>
    <vehicle id="vehicle_245" type="DEFAULT_VEHTYPE" depart="257.25000000000114" route="route_0"/>
    <vehicle id="vehicle_246" type="DEFAULT_VEHTYPE" depart="258.30000000000115" route="route_0"/>
    <vehicle id="vehicle_247" type="DEFAULT_VEHTYPE" depart="259.35000000000116" route="route_2"/>
    <vehicle id="vehicle_248" type="DEFAULT_VEHTYPE" depart="260.40000000000117" route="route_0"/>
    <vehicle id="vehicle_249" type="DEFAULT_VEHTYPE" depart="261.4500000000012" route="route_2"/>
    <vehicle id="vehicle_250" type="DEFAULT_VEHTYPE" depart="262.5000000000012" route="route_2"/>
    <vehicle id="vehicle_251" type="DEFAULT_VEHTYPE" depart="263.5500000000012" route="route_0"/>
    <vehicle id="vehicle_252" type="DEFAULT_VEHTYPE" depart="264.6000000000012" route="route_0"/>
    <vehicle id="vehicle_253" type="DEFAULT_VEHTYPE" depart="265.6500000000012" route="route_0"/>
    <vehicle id="vehicle_254" type="DEFAULT_VEHTYPE" depart="266.70000000000124" route="route_0"/>
    <vehicle id="vehicle_255" type="DEFAULT_VEHTYPE" depart="267.75000000000125" route="route_0"/>
    <vehicle id="vehicle_256" type="DEFAULT_VEHTYPE" depart="268.80000000000126" route="route_2"/>
    <vehicle id="vehicle_257" type="DEFAULT_VEHTYPE" depart="269.8500000000013" route="route_0"/>
    <vehicle id="vehicle_258" type="DEFAULT_VEHTYPE" depart="270.9000000000013" route="route_0"/>
    <vehicle id="vehicle_259" type="DEFAULT_VEHTYPE" depart="271.9500000000013" route="route_2"/>
    <vehicle id="vehicle_260" type="DEFAULT_VEHTYPE" depart="273.0000000000013" route="route_0"/>
    <vehicle id="vehicle_261" type="DEFAULT_VEHTYPE" depart="274.0500000000013" route="route_2"/>
    <vehicle id="vehicle_262" type="DEFAULT_VEHTYPE" depart="275.10000000000133" route="route_0"/>
    <vehicle id="vehicle_263" type="DEFAULT_VEHTYPE" depart="276.15000000000134" route="route_2"/>
    <vehicle id="vehicle_264" type="DEFAULT_VEHTYPE" depart="277.20000000000135" route="route_2"/>
    <vehicle id="vehicle_265" type="DEFAULT_VEHTYPE" depart="278.25000000000136" route="route_0"/>
    <vehicle id="vehicle_266" type="DEFAULT_VEHTYPE" depart="279.3000000000014" route="route_2"/>
    <vehicle id="vehicle_267" type="DEFAULT_VEHTYPE" depart="280.3500000000014" route="route_0"/>
    <vehicle id="vehicle_268" type="DEFAULT_VEHTYPE" depart="281.4000000000014" route="route_0"/>
    <vehicle id="vehicle_269" type="DEFAULT_VEHTYPE" depart="282.4500000000014" route="route_0"/>
    <vehicle id="vehicle_270" type="DEFAULT_VEHTYPE" depart="283.5000000000014" route="route_0"/>
    <vehicle id="vehicle_271" type="DEFAULT_VEHTYPE" depart="284.55000000000143" route="route_2"/>
    <vehicle id="vehicle_272" type="DEFAULT_VEHTYPE" depart="285.60000000000144" route="route_2"/>
    <vehicle id="vehicle_273" type="DEFAULT_VEHTYPE" depart="286.65000000000146" route="route_0"/>
    <vehicle id="vehicle_274" type="DEFAULT_VEHTYPE" depart="287.70000000000147" route="route_2"/>
    <vehicle id="vehicle_275" type="DEFAULT_VEHTYPE" depart="288.7500000000015" route="route_0"/>
    <vehicle id="vehicle_276" type="DEFAULT_VEHTYPE" depart="289.8000000000015" route="route_0"/>
    <vehicle id="vehicle_277" type="DEFAULT_VEHTYPE" depart="290.8500000000015" route="route_0"/>
    <vehicle id="vehicle_278" type="DEFAULT_VEHTYPE" depart="291.9000000000015" route="route_2"/>
    <vehicle id="vehicle_279" type="DEFAULT_VEHTYPE" depart="292.9500000000015" route="route_2"/>
    <vehicle id="vehicle_280" type="DEFAULT_VEHTYPE" depart="294.00000000000153" route="route_2"/>
    <vehicle id="vehicle_281" type="DEFAULT_VEHTYPE" depart="295.05000000000155" route="route_0"/>
    <vehicle id="vehicle_282" type="DEFAULT_VEHTYPE" depart="296.10000000000156" route="route_0"/>
    <vehicle id="vehicle_283" type="DEFAULT_VEHTYPE" depart="297.15000000000157" route="route_0"/>
    <vehicle id="vehicle_284" type="DEFAULT_VEHTYPE" depart="298.2000000000016" route="route_0"/>
    <vehicle id="vehicle_285" type="DEFAULT_VEHTYPE" depart="299.2500000000016" route="route_0"/>
    <vehicle id="vehicle_286" type="DEFAULT_VEHTYPE" depart="300.3000000000016" route="route_2"/>
    <vehicle id="vehicle_287" type="DEFAULT_VEHTYPE" depart="301.3500000000016" route="route_2"/>
    <vehicle id="vehicle_288" type="DEFAULT_VEHTYPE" depart="302.4000000000016" route="route_0"/>
    <vehicle id="vehicle_289" type="DEFAULT_VEHTYPE" depart="303.45000000000164" route="route_2"/>
    <vehicle id="vehicle_290" type="DEFAULT_VEHTYPE" depart="304.50000000000165" route="route_2"/>
    <vehicle id="vehicle_291" type="DEFAULT_VEHTYPE" depart="305.55000000000166" route="route_2"/>
    <vehicle id="vehicle_292" type="DEFAULT_VEHTYPE" depart="306.60000000000167" route="route_0"/>
    <vehicle id="vehicle_293" type="DEFAULT_VEHTYPE" depart="307.6500000000017" route="route_2"/>
    <vehicle id="vehicle_294" type="DEFAULT_VEHTYPE" depart="308.7000000000017" route="route_2"/>
    <vehicle id="vehicle_295" type="DEFAULT_VEHTYPE" depart="309.7500000000017" route="route_0"/>
    <vehicle id="vehicle_296" type="DEFAULT_VEHTYPE" depart="310.8000000000017" route="route_2"/>
    <vehicle id="vehicle_297" type="DEFAULT_VEHTYPE" depart="311.8500000000017" route="route_2"/>
    <vehicle id="vehicle_298" type="DEFAULT_VEHTYPE" depart="312.90000000000174" route="route_0"/>
    <vehicle id="vehicle_299" type="DEFAULT_VEHTYPE" depart="313.95000000000175" route="route_0"/>
</routes>