<routes>
    <route id="route_0" edges="-319929498#3 -319929498#2"/>
    <route id="route_2" edges="-319929498#3 32038440#11"/>
    <vehicle id="vehicle_0" type="DEFAULT_VEHTYPE" depart="0.00" route="route_0"/>
    <vehicle id="vehicle_1" type="DEFAULT_VEHTYPE" depart="7.0" route="route_2"/>
    <vehicle id="vehicle_2" type="DEFAULT_VEHTYPE" depart="14.0" route="route_0"/>
    <vehicle id="vehicle_3" type="DEFAULT_VEHTYPE" depart="21.0" route="route_0"/>
    <vehicle id="vehicle_4" type="DEFAULT_VEHTYPE" depart="28.0" route="route_2"/>
    <vehicle id="vehicle_5" type="DEFAULT_VEHTYPE" depart="35.0" route="route_0"/>
    <vehicle id="vehicle_6" type="DEFAULT_VEHTYPE" depart="42.0" route="route_0"/>
    <vehicle id="vehicle_7" type="DEFAULT_VEHTYPE" depart="49.0" route="route_2"/>
    <vehicle id="vehicle_8" type="DEFAULT_VEHTYPE" depart="56.0" route="route_2"/>
    <vehicle id="vehicle_9" type="DEFAULT_VEHTYPE" depart="63.0" route="route_2"/>
    <vehicle id="vehicle_10" type="DEFAULT_VEHTYPE" depart="70.0" route="route_2"/>
    <vehicle id="vehicle_11" type="DEFAULT_VEHTYPE" depart="77.0" route="route_2"/>
    <vehicle id="vehicle_12" type="DEFAULT_VEHTYPE" depart="84.0" route="route_2"/>
    <vehicle id="vehicle_13" type="DEFAULT_VEHTYPE" depart="91.0" route="route_2"/>
    <vehicle id="vehicle_14" type="DEFAULT_VEHTYPE" depart="98.0" route="route_0"/>
    <vehicle id="vehicle_15" type="DEFAULT_VEHTYPE" depart="105.0" route="route_0"/>
    <vehicle id="vehicle_16" type="DEFAULT_VEHTYPE" depart="112.0" route="route_2"/>
    <vehicle id="vehicle_17" type="DEFAULT_VEHTYPE" depart="119.0" route="route_2"/>
    <vehicle id="vehicle_18" type="DEFAULT_VEHTYPE" depart="126.0" route="route_2"/>
    <vehicle id="vehicle_19" type="DEFAULT_VEHTYPE" depart="133.0" route="route_2"/>
    <vehicle id="vehicle_20" type="DEFAULT_VEHTYPE" depart="140.0" route="route_0"/>
    <vehicle id="vehicle_21" type="DEFAULT_VEHTYPE" depart="147.0" route="route_0"/>
    <vehicle id="vehicle_22" type="DEFAULT_VEHTYPE" depart="154.0" route="route_2"/>
    <vehicle id="vehicle_23" type="DEFAULT_VEHTYPE" depart="161.0" route="route_0"/>
    <vehicle id="vehicle_24" type="DEFAULT_VEHTYPE" depart="168.0" route="route_0"/>
    <vehicle id="vehicle_25" type="DEFAULT_VEHTYPE" depart="175.0" route="route_0"/>
    <vehicle id="vehicle_26" type="DEFAULT_VEHTYPE" depart="182.0" route="route_2"/>
    <vehicle id="vehicle_27" type="DEFAULT_VEHTYPE" depart="189.0" route="route_2"/>
    <vehicle id="vehicle_28" type="DEFAULT_VEHTYPE" depart="196.0" route="route_2"/>
    <vehicle id="vehicle_29" type="DEFAULT_VEHTYPE" depart="203.0" route="route_0"/>
    <vehicle id="vehicle_30" type="DEFAULT_VEHTYPE" depart="210.0" route="route_0"/>
    <vehicle id="vehicle_31" type="DEFAULT_VEHTYPE" depart="217.0" route="route_2"/>
    <vehicle id="vehicle_32" type="DEFAULT_VEHTYPE" depart="224.0" route="route_2"/>
    <vehicle id="vehicle_33" type="DEFAULT_VEHTYPE" depart="231.0" route="route_2"/>
    <vehicle id="vehicle_34" type="DEFAULT_VEHTYPE" depart="238.0" route="route_0"/>
    <vehicle id="vehicle_35" type="DEFAULT_VEHTYPE" depart="245.0" route="route_2"/>
    <vehicle id="vehicle_36" type="DEFAULT_VEHTYPE" depart="252.0" route="route_0"/>
    <vehicle id="vehicle_37" type="DEFAULT_VEHTYPE" depart="259.0" route="route_2"/>
    <vehicle id="vehicle_38" type="DEFAULT_VEHTYPE" depart="266.0" route="route_2"/>
    <vehicle id="vehicle_39" type="DEFAULT_VEHTYPE" depart="273.0" route="route_0"/>
    <vehicle id="vehicle_40" type="DEFAULT_VEHTYPE" depart="280.0" route="route_0"/>
    <vehicle id="vehicle_41" type="DEFAULT_VEHTYPE" depart="287.0" route="route_2"/>
    <vehicle id="vehicle_42" type="DEFAULT_VEHTYPE" depart="294.0" route="route_2"/>
    <vehicle id="vehicle_43" type="DEFAULT_VEHTYPE" depart="301.0" route="route_0"/>
    <vehicle id="vehicle_44" type="DEFAULT_VEHTYPE" depart="308.0" route="route_2"/>
    <vehicle id="vehicle_45" type="DEFAULT_VEHTYPE" depart="315.0" route="route_0"/>
    <vehicle id="vehicle_46" type="DEFAULT_VEHTYPE" depart="322.0" route="route_0"/>
    <vehicle id="vehicle_47" type="DEFAULT_VEHTYPE" depart="329.0" route="route_2"/>
    <vehicle id="vehicle_48" type="DEFAULT_VEHTYPE" depart="336.0" route="route_0"/>
    <vehicle id="vehicle_49" type="DEFAULT_VEHTYPE" depart="343.0" route="route_2"/>
    <vehicle id="vehicle_50" type="DEFAULT_VEHTYPE" depart="350.0" route="route_0"/>
    <vehicle id="vehicle_51" type="DEFAULT_VEHTYPE" depart="357.0" route="route_0"/>
    <vehicle id="vehicle_52" type="DEFAULT_VEHTYPE" depart="364.0" route="route_2"/>
    <vehicle id="vehicle_53" type="DEFAULT_VEHTYPE" depart="371.0" route="route_2"/>
    <vehicle id="vehicle_54" type="DEFAULT_VEHTYPE" depart="378.0" route="route_0"/>
    <vehicle id="vehicle_55" type="DEFAULT_VEHTYPE" depart="385.0" route="route_2"/>
    <vehicle id="vehicle_56" type="DEFAULT_VEHTYPE" depart="392.0" route="route_2"/>
    <vehicle id="vehicle_57" type="DEFAULT_VEHTYPE" depart="399.0" route="route_2"/>
    <vehicle id="vehicle_58" type="DEFAULT_VEHTYPE" depart="406.0" route="route_2"/>
    <vehicle id="vehicle_59" type="DEFAULT_VEHTYPE" depart="413.0" route="route_0"/>
    <vehicle id="vehicle_60" type="DEFAULT_VEHTYPE" depart="420.0" route="route_0"/>
    <vehicle id="vehicle_61" type="DEFAULT_VEHTYPE" depart="427.0" route="route_2"/>
    <vehicle id="vehicle_62" type="DEFAULT_VEHTYPE" depart="434.0" route="route_2"/>
    <vehicle id="vehicle_63" type="DEFAULT_VEHTYPE" depart="441.0" route="route_2"/>
    <vehicle id="vehicle_64" type="DEFAULT_VEHTYPE" depart="448.0" route="route_0"/>
    <vehicle id="vehicle_65" type="DEFAULT_VEHTYPE" depart="455.0" route="route_0"/>
    <vehicle id="vehicle_66" type="DEFAULT_VEHTYPE" depart="462.0" route="route_0"/>
    <vehicle id="vehicle_67" type="DEFAULT_VEHTYPE" depart="469.0" route="route_0"/>
    <vehicle id="vehicle_68" type="DEFAULT_VEHTYPE" depart="476.0" route="route_0"/>
    <vehicle id="vehicle_69" type="DEFAULT_VEHTYPE" depart="483.0" route="route_0"/>
    <vehicle id="vehicle_70" type="DEFAULT_VEHTYPE" depart="490.0" route="route_2"/>
    <vehicle id="vehicle_71" type="DEFAULT_VEHTYPE" depart="497.0" route="route_0"/>
    <vehicle id="vehicle_72" type="DEFAULT_VEHTYPE" depart="504.0" route="route_0"/>
    <vehicle id="vehicle_73" type="DEFAULT_VEHTYPE" depart="511.0" route="route_2"/>
    <vehicle id="vehicle_74" type="DEFAULT_VEHTYPE" depart="518.0" route="route_0"/>
    <vehicle id="vehicle_75" type="DEFAULT_VEHTYPE" depart="525.0" route="route_2"/>
    <vehicle id="vehicle_76" type="DEFAULT_VEHTYPE" depart="532.0" route="route_2"/>
    <vehicle id="vehicle_77" type="DEFAULT_VEHTYPE" depart="539.0" route="route_0"/>
    <vehicle id="vehicle_78" type="DEFAULT_VEHTYPE" depart="546.0" route="route_0"/>
    <vehicle id="vehicle_79" type="DEFAULT_VEHTYPE" depart="553.0" route="route_2"/>
    <vehicle id="vehicle_80" type="DEFAULT_VEHTYPE" depart="560.0" route="route_2"/>
    <vehicle id="vehicle_81" type="DEFAULT_VEHTYPE" depart="567.0" route="route_0"/>
    <vehicle id="vehicle_82" type="DEFAULT_VEHTYPE" depart="574.0" route="route_0"/>
    <vehicle id="vehicle_83" type="DEFAULT_VEHTYPE" depart="581.0" route="route_2"/>
    <vehicle id="vehicle_84" type="DEFAULT_VEHTYPE" depart="588.0" route="route_2"/>
    <vehicle id="vehicle_85" type="DEFAULT_VEHTYPE" depart="595.0" route="route_2"/>
    <vehicle id="vehicle_86" type="DEFAULT_VEHTYPE" depart="602.0" route="route_2"/>
    <vehicle id="vehicle_87" type="DEFAULT_VEHTYPE" depart="609.0" route="route_0"/>
    <vehicle id="vehicle_88" type="DEFAULT_VEHTYPE" depart="616.0" route="route_2"/>
    <vehicle id="vehicle_89" type="DEFAULT_VEHTYPE" depart="623.0" route="route_0"/>
    <vehicle id="vehicle_90" type="DEFAULT_VEHTYPE" depart="630.0" route="route_0"/>
    <vehicle id="vehicle_91" type="DEFAULT_VEHTYPE" depart="637.0" route="route_2"/>
    <vehicle id="vehicle_92" type="DEFAULT_VEHTYPE" depart="644.0" route="route_0"/>
    <vehicle id="vehicle_93" type="DEFAULT_VEHTYPE" depart="651.0" route="route_0"/>
    <vehicle id="vehicle_94" type="DEFAULT_VEHTYPE" depart="658.0" route="route_2"/>
    <vehicle id="vehicle_95" type="DEFAULT_VEHTYPE" depart="665.0" route="route_2"/>
    <vehicle id="vehicle_96" type="DEFAULT_VEHTYPE" depart="672.0" route="route_0"/>
    <vehicle id="vehicle_97" type="DEFAULT_VEHTYPE" depart="679.0" route="route_2"/>
    <vehicle id="vehicle_98" type="DEFAULT_VEHTYPE" depart="686.0" route="route_0"/>
    <vehicle id="vehicle_99" type="DEFAULT_VEHTYPE" depart="693.0" route="route_2"/>
    <vehicle id="vehicle_100" type="DEFAULT_VEHTYPE" depart="700.0" route="route_0"/>
    <vehicle id="vehicle_101" type="DEFAULT_VEHTYPE" depart="707.0" route="route_0"/>
    <vehicle id="vehicle_102" type="DEFAULT_VEHTYPE" depart="714.0" route="route_0"/>
    <vehicle id="vehicle_103" type="DEFAULT_VEHTYPE" depart="721.0" route="route_2"/>
    <vehicle id="vehicle_104" type="DEFAULT_VEHTYPE" depart="728.0" route="route_0"/>
    <vehicle id="vehicle_105" type="DEFAULT_VEHTYPE" depart="735.0" route="route_2"/>
    <vehicle id="vehicle_106" type="DEFAULT_VEHTYPE" depart="742.0" route="route_2"/>
    <vehicle id="vehicle_107" type="DEFAULT_VEHTYPE" depart="749.0" route="route_2"/>
    <vehicle id="vehicle_108" type="DEFAULT_VEHTYPE" depart="756.0" route="route_2"/>
    <vehicle id="vehicle_109" type="DEFAULT_VEHTYPE" depart="763.0" route="route_2"/>
    <vehicle id="vehicle_110" type="DEFAULT_VEHTYPE" depart="770.0" route="route_0"/>
    <vehicle id="vehicle_111" type="DEFAULT_VEHTYPE" depart="777.0" route="route_2"/>
    <vehicle id="vehicle_112" type="DEFAULT_VEHTYPE" depart="784.0" route="route_0"/>
    <vehicle id="vehicle_113" type="DEFAULT_VEHTYPE" depart="791.0" route="route_2"/>
    <vehicle id="vehicle_114" type="DEFAULT_VEHTYPE" depart="798.0" route="route_0"/>
    <vehicle id="vehicle_115" type="DEFAULT_VEHTYPE" depart="805.0" route="route_0"/>
    <vehicle id="vehicle_116" type="DEFAULT_VEHTYPE" depart="812.0" route="route_0"/>
    <vehicle id="vehicle_117" type="DEFAULT_VEHTYPE" depart="819.0" route="route_0"/>
    <vehicle id="vehicle_118" type="DEFAULT_VEHTYPE" depart="826.0" route="route_2"/>
    <vehicle id="vehicle_119" type="DEFAULT_VEHTYPE" depart="833.0" route="route_2"/>
    <vehicle id="vehicle_120" type="DEFAULT_VEHTYPE" depart="840.0" route="route_0"/>
    <vehicle id="vehicle_121" type="DEFAULT_VEHTYPE" depart="847.0" route="route_2"/>
    <vehicle id="vehicle_122" type="DEFAULT_VEHTYPE" depart="854.0" route="route_0"/>
    <vehicle id="vehicle_123" type="DEFAULT_VEHTYPE" depart="861.0" route="route_0"/>
    <vehicle id="vehicle_124" type="DEFAULT_VEHTYPE" depart="868.0" route="route_2"/>
    <vehicle id="vehicle_125" type="DEFAULT_VEHTYPE" depart="875.0" route="route_0"/>
    <vehicle id="vehicle_126" type="DEFAULT_VEHTYPE" depart="882.0" route="route_2"/>
    <vehicle id="vehicle_127" type="DEFAULT_VEHTYPE" depart="889.0" route="route_0"/>
    <vehicle id="vehicle_128" type="DEFAULT_VEHTYPE" depart="896.0" route="route_0"/>
    <vehicle id="vehicle_129" type="DEFAULT_VEHTYPE" depart="903.0" route="route_0"/>
    <vehicle id="vehicle_130" type="DEFAULT_VEHTYPE" depart="910.0" route="route_0"/>
    <vehicle id="vehicle_131" type="DEFAULT_VEHTYPE" depart="917.0" route="route_2"/>
    <vehicle id="vehicle_132" type="DEFAULT_VEHTYPE" depart="924.0" route="route_0"/>
    <vehicle id="vehicle_133" type="DEFAULT_VEHTYPE" depart="931.0" route="route_0"/>
    <vehicle id="vehicle_134" type="DEFAULT_VEHTYPE" depart="938.0" route="route_0"/>
    <vehicle id="vehicle_135" type="DEFAULT_VEHTYPE" depart="945.0" route="route_2"/>
    <vehicle id="vehicle_136" type="DEFAULT_VEHTYPE" depart="952.0" route="route_0"/>
    <vehicle id="vehicle_137" type="DEFAULT_VEHTYPE" depart="959.0" route="route_0"/>
    <vehicle id="vehicle_138" type="DEFAULT_VEHTYPE" depart="966.0" route="route_0"/>
    <vehicle id="vehicle_139" type="DEFAULT_VEHTYPE" depart="973.0" route="route_2"/>
    <vehicle id="vehicle_140" type="DEFAULT_VEHTYPE" depart="980.0" route="route_2"/>
    <vehicle id="vehicle_141" type="DEFAULT_VEHTYPE" depart="987.0" route="route_2"/>
    <vehicle id="vehicle_142" type="DEFAULT_VEHTYPE" depart="994.0" route="route_0"/>
    <vehicle id="vehicle_143" type="DEFAULT_VEHTYPE" depart="1001.0" route="route_0"/>
    <vehicle id="vehicle_144" type="DEFAULT_VEHTYPE" depart="1008.0" route="route_2"/>
    <vehicle id="vehicle_145" type="DEFAULT_VEHTYPE" depart="1015.0" route="route_2"/>
    <vehicle id="vehicle_146" type="DEFAULT_VEHTYPE" depart="1022.0" route="route_0"/>
    <vehicle id="vehicle_147" type="DEFAULT_VEHTYPE" depart="1029.0" route="route_0"/>
    <vehicle id="vehicle_148" type="DEFAULT_VEHTYPE" depart="1036.0" route="route_2"/>
    <vehicle id="vehicle_149" type="DEFAULT_VEHTYPE" depart="1043.0" route="route_2"/>
    <vehicle id="vehicle_150" type="DEFAULT_VEHTYPE" depart="1050.0" route="route_2"/>
    <vehicle id="vehicle_151" type="DEFAULT_VEHTYPE" depart="1057.0" route="route_0"/>
    <vehicle id="vehicle_152" type="DEFAULT_VEHTYPE" depart="1064.0" route="route_0"/>
    <vehicle id="vehicle_153" type="DEFAULT_VEHTYPE" depart="1071.0" route="route_0"/>
    <vehicle id="vehicle_154" type="DEFAULT_VEHTYPE" depart="1078.0" route="route_0"/>
    <vehicle id="vehicle_155" type="DEFAULT_VEHTYPE" depart="1085.0" route="route_2"/>
    <vehicle id="vehicle_156" type="DEFAULT_VEHTYPE" depart="1092.0" route="route_2"/>
    <vehicle id="vehicle_157" type="DEFAULT_VEHTYPE" depart="1099.0" route="route_2"/>
    <vehicle id="vehicle_158" type="DEFAULT_VEHTYPE" depart="1106.0" route="route_2"/>
    <vehicle id="vehicle_159" type="DEFAULT_VEHTYPE" depart="1113.0" route="route_0"/>
    <vehicle id="vehicle_160" type="DEFAULT_VEHTYPE" depart="1120.0" route="route_2"/>
    <vehicle id="vehicle_161" type="DEFAULT_VEHTYPE" depart="1127.0" route="route_0"/>
    <vehicle id="vehicle_162" type="DEFAULT_VEHTYPE" depart="1134.0" route="route_2"/>
    <vehicle id="vehicle_163" type="DEFAULT_VEHTYPE" depart="1141.0" route="route_0"/>
    <vehicle id="vehicle_164" type="DEFAULT_VEHTYPE" depart="1148.0" route="route_0"/>
    <vehicle id="vehicle_165" type="DEFAULT_VEHTYPE" depart="1155.0" route="route_0"/>
    <vehicle id="vehicle_166" type="DEFAULT_VEHTYPE" depart="1162.0" route="route_0"/>
    <vehicle id="vehicle_167" type="DEFAULT_VEHTYPE" depart="1169.0" route="route_2"/>
    <vehicle id="vehicle_168" type="DEFAULT_VEHTYPE" depart="1176.0" route="route_2"/>
    <vehicle id="vehicle_169" type="DEFAULT_VEHTYPE" depart="1183.0" route="route_0"/>
    <vehicle id="vehicle_170" type="DEFAULT_VEHTYPE" depart="1190.0" route="route_2"/>
    <vehicle id="vehicle_171" type="DEFAULT_VEHTYPE" depart="1197.0" route="route_2"/>
    <vehicle id="vehicle_172" type="DEFAULT_VEHTYPE" depart="1204.0" route="route_0"/>
    <vehicle id="vehicle_173" type="DEFAULT_VEHTYPE" depart="1211.0" route="route_2"/>
    <vehicle id="vehicle_174" type="DEFAULT_VEHTYPE" depart="1218.0" route="route_0"/>
    <vehicle id="vehicle_175" type="DEFAULT_VEHTYPE" depart="1225.0" route="route_2"/>
    <vehicle id="vehicle_176" type="DEFAULT_VEHTYPE" depart="1232.0" route="route_0"/>
    <vehicle id="vehicle_177" type="DEFAULT_VEHTYPE" depart="1239.0" route="route_0"/>
    <vehicle id="vehicle_178" type="DEFAULT_VEHTYPE" depart="1246.0" route="route_2"/>
    <vehicle id="vehicle_179" type="DEFAULT_VEHTYPE" depart="1253.0" route="route_0"/>
    <vehicle id="vehicle_180" type="DEFAULT_VEHTYPE" depart="1260.0" route="route_2"/>
    <vehicle id="vehicle_181" type="DEFAULT_VEHTYPE" depart="1267.0" route="route_2"/>
    <vehicle id="vehicle_182" type="DEFAULT_VEHTYPE" depart="1274.0" route="route_2"/>
    <vehicle id="vehicle_183" type="DEFAULT_VEHTYPE" depart="1281.0" route="route_2"/>
    <vehicle id="vehicle_184" type="DEFAULT_VEHTYPE" depart="1288.0" route="route_2"/>
    <vehicle id="vehicle_185" type="DEFAULT_VEHTYPE" depart="1295.0" route="route_2"/>
    <vehicle id="vehicle_186" type="DEFAULT_VEHTYPE" depart="1302.0" route="route_0"/>
    <vehicle id="vehicle_187" type="DEFAULT_VEHTYPE" depart="1309.0" route="route_0"/>
    <vehicle id="vehicle_188" type="DEFAULT_VEHTYPE" depart="1316.0" route="route_0"/>
    <vehicle id="vehicle_189" type="DEFAULT_VEHTYPE" depart="1323.0" route="route_0"/>
    <vehicle id="vehicle_190" type="DEFAULT_VEHTYPE" depart="1330.0" route="route_0"/>
    <vehicle id="vehicle_191" type="DEFAULT_VEHTYPE" depart="1337.0" route="route_0"/>
    <vehicle id="vehicle_192" type="DEFAULT_VEHTYPE" depart="1344.0" route="route_0"/>
    <vehicle id="vehicle_193" type="DEFAULT_VEHTYPE" depart="1351.0" route="route_0"/>
    <vehicle id="vehicle_194" type="DEFAULT_VEHTYPE" depart="1358.0" route="route_2"/>
    <vehicle id="vehicle_195" type="DEFAULT_VEHTYPE" depart="1365.0" route="route_2"/>
    <vehicle id="vehicle_196" type="DEFAULT_VEHTYPE" depart="1372.0" route="route_2"/>
    <vehicle id="vehicle_197" type="DEFAULT_VEHTYPE" depart="1379.0" route="route_0"/>
    <vehicle id="vehicle_198" type="DEFAULT_VEHTYPE" depart="1386.0" route="route_2"/>
    <vehicle id="vehicle_199" type="DEFAULT_VEHTYPE" depart="1393.0" route="route_2"/>
    <vehicle id="vehicle_200" type="DEFAULT_VEHTYPE" depart="1400.0" route="route_0"/>
    <vehicle id="vehicle_201" type="DEFAULT_VEHTYPE" depart="1407.0" route="route_2"/>
    <vehicle id="vehicle_202" type="DEFAULT_VEHTYPE" depart="1414.0" route="route_2"/>
    <vehicle id="vehicle_203" type="DEFAULT_VEHTYPE" depart="1421.0" route="route_0"/>
    <vehicle id="vehicle_204" type="DEFAULT_VEHTYPE" depart="1428.0" route="route_0"/>
    <vehicle id="vehicle_205" type="DEFAULT_VEHTYPE" depart="1435.0" route="route_2"/>
    <vehicle id="vehicle_206" type="DEFAULT_VEHTYPE" depart="1442.0" route="route_2"/>
    <vehicle id="vehicle_207" type="DEFAULT_VEHTYPE" depart="1449.0" route="route_2"/>
    <vehicle id="vehicle_208" type="DEFAULT_VEHTYPE" depart="1456.0" route="route_0"/>
    <vehicle id="vehicle_209" type="DEFAULT_VEHTYPE" depart="1463.0" route="route_0"/>
    <vehicle id="vehicle_210" type="DEFAULT_VEHTYPE" depart="1470.0" route="route_0"/>
    <vehicle id="vehicle_211" type="DEFAULT_VEHTYPE" depart="1477.0" route="route_0"/>
    <vehicle id="vehicle_212" type="DEFAULT_VEHTYPE" depart="1484.0" route="route_0"/>
    <vehicle id="vehicle_213" type="DEFAULT_VEHTYPE" depart="1491.0" route="route_2"/>
    <vehicle id="vehicle_214" type="DEFAULT_VEHTYPE" depart="1498.0" route="route_2"/>
    <vehicle id="vehicle_215" type="DEFAULT_VEHTYPE" depart="1505.0" route="route_2"/>
    <vehicle id="vehicle_216" type="DEFAULT_VEHTYPE" depart="1512.0" route="route_2"/>
    <vehicle id="vehicle_217" type="DEFAULT_VEHTYPE" depart="1519.0" route="route_0"/>
    <vehicle id="vehicle_218" type="DEFAULT_VEHTYPE" depart="1526.0" route="route_2"/>
    <vehicle id="vehicle_219" type="DEFAULT_VEHTYPE" depart="1533.0" route="route_0"/>
    <vehicle id="vehicle_220" type="DEFAULT_VEHTYPE" depart="1540.0" route="route_0"/>
    <vehicle id="vehicle_221" type="DEFAULT_VEHTYPE" depart="1547.0" route="route_2"/>
    <vehicle id="vehicle_222" type="DEFAULT_VEHTYPE" depart="1554.0" route="route_0"/>
    <vehicle id="vehicle_223" type="DEFAULT_VEHTYPE" depart="1561.0" route="route_0"/>
    <vehicle id="vehicle_224" type="DEFAULT_VEHTYPE" depart="1568.0" route="route_0"/>
    <vehicle id="vehicle_225" type="DEFAULT_VEHTYPE" depart="1575.0" route="route_0"/>
    <vehicle id="vehicle_226" type="DEFAULT_VEHTYPE" depart="1582.0" route="route_2"/>
    <vehicle id="vehicle_227" type="DEFAULT_VEHTYPE" depart="1589.0" route="route_2"/>
    <vehicle id="vehicle_228" type="DEFAULT_VEHTYPE" depart="1596.0" route="route_2"/>
    <vehicle id="vehicle_229" type="DEFAULT_VEHTYPE" depart="1603.0" route="route_0"/>
    <vehicle id="vehicle_230" type="DEFAULT_VEHTYPE" depart="1610.0" route="route_0"/>
    <vehicle id="vehicle_231" type="DEFAULT_VEHTYPE" depart="1617.0" route="route_0"/>
    <vehicle id="vehicle_232" type="DEFAULT_VEHTYPE" depart="1624.0" route="route_0"/>
    <vehicle id="vehicle_233" type="DEFAULT_VEHTYPE" depart="1631.0" route="route_2"/>
    <vehicle id="vehicle_234" type="DEFAULT_VEHTYPE" depart="1638.0" route="route_2"/>
    <vehicle id="vehicle_235" type="DEFAULT_VEHTYPE" depart="1645.0" route="route_2"/>
    <vehicle id="vehicle_236" type="DEFAULT_VEHTYPE" depart="1652.0" route="route_0"/>
    <vehicle id="vehicle_237" type="DEFAULT_VEHTYPE" depart="1659.0" route="route_2"/>
    <vehicle id="vehicle_238" type="DEFAULT_VEHTYPE" depart="1666.0" route="route_2"/>
    <vehicle id="vehicle_239" type="DEFAULT_VEHTYPE" depart="1673.0" route="route_0"/>
    <vehicle id="vehicle_240" type="DEFAULT_VEHTYPE" depart="1680.0" route="route_0"/>
    <vehicle id="vehicle_241" type="DEFAULT_VEHTYPE" depart="1687.0" route="route_0"/>
    <vehicle id="vehicle_242" type="DEFAULT_VEHTYPE" depart="1694.0" route="route_0"/>
    <vehicle id="vehicle_243" type="DEFAULT_VEHTYPE" depart="1701.0" route="route_2"/>
    <vehicle id="vehicle_244" type="DEFAULT_VEHTYPE" depart="1708.0" route="route_2"/>
    <vehicle id="vehicle_245" type="DEFAULT_VEHTYPE" depart="1715.0" route="route_2"/>
    <vehicle id="vehicle_246" type="DEFAULT_VEHTYPE" depart="1722.0" route="route_0"/>
    <vehicle id="vehicle_247" type="DEFAULT_VEHTYPE" depart="1729.0" route="route_0"/>
    <vehicle id="vehicle_248" type="DEFAULT_VEHTYPE" depart="1736.0" route="route_0"/>
    <vehicle id="vehicle_249" type="DEFAULT_VEHTYPE" depart="1743.0" route="route_2"/>
    <vehicle id="vehicle_250" type="DEFAULT_VEHTYPE" depart="1750.0" route="route_2"/>
    <vehicle id="vehicle_251" type="DEFAULT_VEHTYPE" depart="1757.0" route="route_0"/>
    <vehicle id="vehicle_252" type="DEFAULT_VEHTYPE" depart="1764.0" route="route_0"/>
    <vehicle id="vehicle_253" type="DEFAULT_VEHTYPE" depart="1771.0" route="route_2"/>
    <vehicle id="vehicle_254" type="DEFAULT_VEHTYPE" depart="1778.0" route="route_0"/>
    <vehicle id="vehicle_255" type="DEFAULT_VEHTYPE" depart="1785.0" route="route_2"/>
    <vehicle id="vehicle_256" type="DEFAULT_VEHTYPE" depart="1792.0" route="route_0"/>
    <vehicle id="vehicle_257" type="DEFAULT_VEHTYPE" depart="1799.0" route="route_2"/>
    <vehicle id="vehicle_258" type="DEFAULT_VEHTYPE" depart="1806.0" route="route_0"/>
    <vehicle id="vehicle_259" type="DEFAULT_VEHTYPE" depart="1813.0" route="route_2"/>
    <vehicle id="vehicle_260" type="DEFAULT_VEHTYPE" depart="1820.0" route="route_2"/>
    <vehicle id="vehicle_261" type="DEFAULT_VEHTYPE" depart="1827.0" route="route_2"/>
    <vehicle id="vehicle_262" type="DEFAULT_VEHTYPE" depart="1834.0" route="route_0"/>
    <vehicle id="vehicle_263" type="DEFAULT_VEHTYPE" depart="1841.0" route="route_0"/>
    <vehicle id="vehicle_264" type="DEFAULT_VEHTYPE" depart="1848.0" route="route_2"/>
    <vehicle id="vehicle_265" type="DEFAULT_VEHTYPE" depart="1855.0" route="route_2"/>
    <vehicle id="vehicle_266" type="DEFAULT_VEHTYPE" depart="1862.0" route="route_0"/>
    <vehicle id="vehicle_267" type="DEFAULT_VEHTYPE" depart="1869.0" route="route_0"/>
    <vehicle id="vehicle_268" type="DEFAULT_VEHTYPE" depart="1876.0" route="route_0"/>
    <vehicle id="vehicle_269" type="DEFAULT_VEHTYPE" depart="1883.0" route="route_2"/>
    <vehicle id="vehicle_270" type="DEFAULT_VEHTYPE" depart="1890.0" route="route_2"/>
    <vehicle id="vehicle_271" type="DEFAULT_VEHTYPE" depart="1897.0" route="route_2"/>
    <vehicle id="vehicle_272" type="DEFAULT_VEHTYPE" depart="1904.0" route="route_0"/>
    <vehicle id="vehicle_273" type="DEFAULT_VEHTYPE" depart="1911.0" route="route_2"/>
    <vehicle id="vehicle_274" type="DEFAULT_VEHTYPE" depart="1918.0" route="route_0"/>
    <vehicle id="vehicle_275" type="DEFAULT_VEHTYPE" depart="1925.0" route="route_2"/>
    <vehicle id="vehicle_276" type="DEFAULT_VEHTYPE" depart="1932.0" route="route_0"/>
    <vehicle id="vehicle_277" type="DEFAULT_VEHTYPE" depart="1939.0" route="route_2"/>
    <vehicle id="vehicle_278" type="DEFAULT_VEHTYPE" depart="1946.0" route="route_0"/>
    <vehicle id="vehicle_279" type="DEFAULT_VEHTYPE" depart="1953.0" route="route_0"/>
    <vehicle id="vehicle_280" type="DEFAULT_VEHTYPE" depart="1960.0" route="route_0"/>
    <vehicle id="vehicle_281" type="DEFAULT_VEHTYPE" depart="1967.0" route="route_0"/>
    <vehicle id="vehicle_282" type="DEFAULT_VEHTYPE" depart="1974.0" route="route_0"/>
    <vehicle id="vehicle_283" type="DEFAULT_VEHTYPE" depart="1981.0" route="route_0"/>
    <vehicle id="vehicle_284" type="DEFAULT_VEHTYPE" depart="1988.0" route="route_0"/>
    <vehicle id="vehicle_285" type="DEFAULT_VEHTYPE" depart="1995.0" route="route_0"/>
    <vehicle id="vehicle_286" type="DEFAULT_VEHTYPE" depart="2002.0" route="route_2"/>
    <vehicle id="vehicle_287" type="DEFAULT_VEHTYPE" depart="2009.0" route="route_0"/>
    <vehicle id="vehicle_288" type="DEFAULT_VEHTYPE" depart="2016.0" route="route_2"/>
    <vehicle id="vehicle_289" type="DEFAULT_VEHTYPE" depart="2023.0" route="route_0"/>
    <vehicle id="vehicle_290" type="DEFAULT_VEHTYPE" depart="2030.0" route="route_0"/>
    <vehicle id="vehicle_291" type="DEFAULT_VEHTYPE" depart="2037.0" route="route_2"/>
    <vehicle id="vehicle_292" type="DEFAULT_VEHTYPE" depart="2044.0" route="route_2"/>
    <vehicle id="vehicle_293" type="DEFAULT_VEHTYPE" depart="2051.0" route="route_0"/>
    <vehicle id="vehicle_294" type="DEFAULT_VEHTYPE" depart="2058.0" route="route_2"/>
    <vehicle id="vehicle_295" type="DEFAULT_VEHTYPE" depart="2065.0" route="route_0"/>
    <vehicle id="vehicle_296" type="DEFAULT_VEHTYPE" depart="2072.0" route="route_0"/>
    <vehicle id="vehicle_297" type="DEFAULT_VEHTYPE" depart="2079.0" route="route_2"/>
    <vehicle id="vehicle_298" type="DEFAULT_VEHTYPE" depart="2086.0" route="route_2"/>
    <vehicle id="vehicle_299" type="DEFAULT_VEHTYPE" depart="2093.0" route="route_2"/>
</routes>