<routes>
    <route id="route_0" edges="-319929498#3 -319929498#2" />
    <route id="route_2" edges="-319929498#3 32038440#11" />
    <vehicle id="vehicle_0" type="DEFAULT_VEHTYPE" depart="0.00" route="route_0" />
<vehicle id="vehicle_1" type="DEFAULT_VEHTYPE" depart="1.4" route="route_2" /><vehicle id="vehicle_2" type="DEFAULT_VEHTYPE" depart="2.8" route="route_0" /><vehicle id="vehicle_3" type="DEFAULT_VEHTYPE" depart="4.199999999999999" route="route_2" /><vehicle id="vehicle_4" type="DEFAULT_VEHTYPE" depart="5.6" route="route_2" /><vehicle id="vehicle_5" type="DEFAULT_VEHTYPE" depart="7.0" route="route_2" /><vehicle id="vehicle_6" type="DEFAULT_VEHTYPE" depart="8.4" route="route_2" /><vehicle id="vehicle_7" type="DEFAULT_VEHTYPE" depart="9.8" route="route_2" /><vehicle id="vehicle_8" type="DEFAULT_VEHTYPE" depart="11.200000000000001" route="route_2" /><vehicle id="vehicle_9" type="DEFAULT_VEHTYPE" depart="12.600000000000001" route="route_0" /><vehicle id="vehicle_10" type="DEFAULT_VEHTYPE" depart="14.000000000000002" route="route_0" /><vehicle id="vehicle_11" type="DEFAULT_VEHTYPE" depart="15.400000000000002" route="route_0" /><vehicle id="vehicle_12" type="DEFAULT_VEHTYPE" depart="16.8" route="route_2" /><vehicle id="vehicle_13" type="DEFAULT_VEHTYPE" depart="18.2" route="route_0" /><vehicle id="vehicle_14" type="DEFAULT_VEHTYPE" depart="19.599999999999998" route="route_0" /><vehicle id="vehicle_15" type="DEFAULT_VEHTYPE" depart="20.999999999999996" route="route_0" /><vehicle id="vehicle_16" type="DEFAULT_VEHTYPE" depart="22.399999999999995" route="route_2" /><vehicle id="vehicle_17" type="DEFAULT_VEHTYPE" depart="23.799999999999994" route="route_2" /><vehicle id="vehicle_18" type="DEFAULT_VEHTYPE" depart="25.199999999999992" route="route_2" /><vehicle id="vehicle_19" type="DEFAULT_VEHTYPE" depart="26.59999999999999" route="route_0" /><vehicle id="vehicle_20" type="DEFAULT_VEHTYPE" depart="27.99999999999999" route="route_2" /><vehicle id="vehicle_21" type="DEFAULT_VEHTYPE" depart="29.399999999999988" route="route_0" /><vehicle id="vehicle_22" type="DEFAULT_VEHTYPE" depart="30.799999999999986" route="route_0" /><vehicle id="vehicle_23" type="DEFAULT_VEHTYPE" depart="32.19999999999999" route="route_2" /><vehicle id="vehicle_24" type="DEFAULT_VEHTYPE" depart="33.59999999999999" route="route_0" /><vehicle id="vehicle_25" type="DEFAULT_VEHTYPE" depart="34.999999999999986" route="route_0" /><vehicle id="vehicle_26" type="DEFAULT_VEHTYPE" depart="36.399999999999984" route="route_2" /><vehicle id="vehicle_27" type="DEFAULT_VEHTYPE" depart="37.79999999999998" route="route_0" /><vehicle id="vehicle_28" type="DEFAULT_VEHTYPE" depart="39.19999999999998" route="route_2" /><vehicle id="vehicle_29" type="DEFAULT_VEHTYPE" depart="40.59999999999998" route="route_2" /><vehicle id="vehicle_30" type="DEFAULT_VEHTYPE" depart="41.99999999999998" route="route_0" /><vehicle id="vehicle_31" type="DEFAULT_VEHTYPE" depart="43.39999999999998" route="route_0" /><vehicle id="vehicle_32" type="DEFAULT_VEHTYPE" depart="44.799999999999976" route="route_2" /><vehicle id="vehicle_33" type="DEFAULT_VEHTYPE" depart="46.199999999999974" route="route_2" /><vehicle id="vehicle_34" type="DEFAULT_VEHTYPE" depart="47.59999999999997" route="route_0" /><vehicle id="vehicle_35" type="DEFAULT_VEHTYPE" depart="48.99999999999997" route="route_2" /><vehicle id="vehicle_36" type="DEFAULT_VEHTYPE" depart="50.39999999999997" route="route_0" /><vehicle id="vehicle_37" type="DEFAULT_VEHTYPE" depart="51.79999999999997" route="route_0" /><vehicle id="vehicle_38" type="DEFAULT_VEHTYPE" depart="53.19999999999997" route="route_2" /><vehicle id="vehicle_39" type="DEFAULT_VEHTYPE" depart="54.599999999999966" route="route_0" /><vehicle id="vehicle_40" type="DEFAULT_VEHTYPE" depart="55.999999999999964" route="route_0" /><vehicle id="vehicle_41" type="DEFAULT_VEHTYPE" depart="57.39999999999996" route="route_2" /><vehicle id="vehicle_42" type="DEFAULT_VEHTYPE" depart="58.79999999999996" route="route_0" /><vehicle id="vehicle_43" type="DEFAULT_VEHTYPE" depart="60.19999999999996" route="route_0" /><vehicle id="vehicle_44" type="DEFAULT_VEHTYPE" depart="61.59999999999996" route="route_2" /><vehicle id="vehicle_45" type="DEFAULT_VEHTYPE" depart="62.99999999999996" route="route_2" /><vehicle id="vehicle_46" type="DEFAULT_VEHTYPE" depart="64.39999999999996" route="route_0" /><vehicle id="vehicle_47" type="DEFAULT_VEHTYPE" depart="65.79999999999997" route="route_0" /><vehicle id="vehicle_48" type="DEFAULT_VEHTYPE" depart="67.19999999999997" route="route_2" /><vehicle id="vehicle_49" type="DEFAULT_VEHTYPE" depart="68.59999999999998" route="route_0" /><vehicle id="vehicle_50" type="DEFAULT_VEHTYPE" depart="69.99999999999999" route="route_2" /><vehicle id="vehicle_51" type="DEFAULT_VEHTYPE" depart="71.39999999999999" route="route_2" /><vehicle id="vehicle_52" type="DEFAULT_VEHTYPE" depart="72.8" route="route_0" /><vehicle id="vehicle_53" type="DEFAULT_VEHTYPE" depart="74.2" route="route_2" /><vehicle id="vehicle_54" type="DEFAULT_VEHTYPE" depart="75.60000000000001" route="route_2" /><vehicle id="vehicle_55" type="DEFAULT_VEHTYPE" depart="77.00000000000001" route="route_0" /><vehicle id="vehicle_56" type="DEFAULT_VEHTYPE" depart="78.40000000000002" route="route_2" /><vehicle id="vehicle_57" type="DEFAULT_VEHTYPE" depart="79.80000000000003" route="route_2" /><vehicle id="vehicle_58" type="DEFAULT_VEHTYPE" depart="81.20000000000003" route="route_2" /><vehicle id="vehicle_59" type="DEFAULT_VEHTYPE" depart="82.60000000000004" route="route_2" /><vehicle id="vehicle_60" type="DEFAULT_VEHTYPE" depart="84.00000000000004" route="route_2" /><vehicle id="vehicle_61" type="DEFAULT_VEHTYPE" depart="85.40000000000005" route="route_0" /><vehicle id="vehicle_62" type="DEFAULT_VEHTYPE" depart="86.80000000000005" route="route_0" /><vehicle id="vehicle_63" type="DEFAULT_VEHTYPE" depart="88.20000000000006" route="route_0" /><vehicle id="vehicle_64" type="DEFAULT_VEHTYPE" depart="89.60000000000007" route="route_2" /><vehicle id="vehicle_65" type="DEFAULT_VEHTYPE" depart="91.00000000000007" route="route_2" /><vehicle id="vehicle_66" type="DEFAULT_VEHTYPE" depart="92.40000000000008" route="route_2" /><vehicle id="vehicle_67" type="DEFAULT_VEHTYPE" depart="93.80000000000008" route="route_0" /><vehicle id="vehicle_68" type="DEFAULT_VEHTYPE" depart="95.20000000000009" route="route_2" /><vehicle id="vehicle_69" type="DEFAULT_VEHTYPE" depart="96.6000000000001" route="route_2" /><vehicle id="vehicle_70" type="DEFAULT_VEHTYPE" depart="98.0000000000001" route="route_0" /><vehicle id="vehicle_71" type="DEFAULT_VEHTYPE" depart="99.4000000000001" route="route_0" /><vehicle id="vehicle_72" type="DEFAULT_VEHTYPE" depart="100.80000000000011" route="route_2" /><vehicle id="vehicle_73" type="DEFAULT_VEHTYPE" depart="102.20000000000012" route="route_0" /><vehicle id="vehicle_74" type="DEFAULT_VEHTYPE" depart="103.60000000000012" route="route_2" /><vehicle id="vehicle_75" type="DEFAULT_VEHTYPE" depart="105.00000000000013" route="route_2" /><vehicle id="vehicle_76" type="DEFAULT_VEHTYPE" depart="106.40000000000013" route="route_2" /><vehicle id="vehicle_77" type="DEFAULT_VEHTYPE" depart="107.80000000000014" route="route_2" /><vehicle id="vehicle_78" type="DEFAULT_VEHTYPE" depart="109.20000000000014" route="route_0" /><vehicle id="vehicle_79" type="DEFAULT_VEHTYPE" depart="110.60000000000015" route="route_2" /><vehicle id="vehicle_80" type="DEFAULT_VEHTYPE" depart="112.00000000000016" route="route_2" /><vehicle id="vehicle_81" type="DEFAULT_VEHTYPE" depart="113.40000000000016" route="route_0" /><vehicle id="vehicle_82" type="DEFAULT_VEHTYPE" depart="114.80000000000017" route="route_0" /><vehicle id="vehicle_83" type="DEFAULT_VEHTYPE" depart="116.20000000000017" route="route_2" /><vehicle id="vehicle_84" type="DEFAULT_VEHTYPE" depart="117.60000000000018" route="route_2" /><vehicle id="vehicle_85" type="DEFAULT_VEHTYPE" depart="119.00000000000018" route="route_0" /><vehicle id="vehicle_86" type="DEFAULT_VEHTYPE" depart="120.40000000000019" route="route_0" /><vehicle id="vehicle_87" type="DEFAULT_VEHTYPE" depart="121.8000000000002" route="route_2" /><vehicle id="vehicle_88" type="DEFAULT_VEHTYPE" depart="123.2000000000002" route="route_2" /><vehicle id="vehicle_89" type="DEFAULT_VEHTYPE" depart="124.60000000000021" route="route_0" /><vehicle id="vehicle_90" type="DEFAULT_VEHTYPE" depart="126.00000000000021" route="route_0" /><vehicle id="vehicle_91" type="DEFAULT_VEHTYPE" depart="127.40000000000022" route="route_2" /><vehicle id="vehicle_92" type="DEFAULT_VEHTYPE" depart="128.8000000000002" route="route_0" /><vehicle id="vehicle_93" type="DEFAULT_VEHTYPE" depart="130.20000000000022" route="route_0" /><vehicle id="vehicle_94" type="DEFAULT_VEHTYPE" depart="131.60000000000022" route="route_2" /><vehicle id="vehicle_95" type="DEFAULT_VEHTYPE" depart="133.00000000000023" route="route_2" /><vehicle id="vehicle_96" type="DEFAULT_VEHTYPE" depart="134.40000000000023" route="route_2" /><vehicle id="vehicle_97" type="DEFAULT_VEHTYPE" depart="135.80000000000024" route="route_2" /><vehicle id="vehicle_98" type="DEFAULT_VEHTYPE" depart="137.20000000000024" route="route_0" /><vehicle id="vehicle_99" type="DEFAULT_VEHTYPE" depart="138.60000000000025" route="route_2" /><vehicle id="vehicle_100" type="DEFAULT_VEHTYPE" depart="140.00000000000026" route="route_2" /><vehicle id="vehicle_101" type="DEFAULT_VEHTYPE" depart="141.40000000000026" route="route_0" /><vehicle id="vehicle_102" type="DEFAULT_VEHTYPE" depart="142.80000000000027" route="route_2" /><vehicle id="vehicle_103" type="DEFAULT_VEHTYPE" depart="144.20000000000027" route="route_2" /><vehicle id="vehicle_104" type="DEFAULT_VEHTYPE" depart="145.60000000000028" route="route_2" /><vehicle id="vehicle_105" type="DEFAULT_VEHTYPE" depart="147.00000000000028" route="route_2" /><vehicle id="vehicle_106" type="DEFAULT_VEHTYPE" depart="148.4000000000003" route="route_2" /><vehicle id="vehicle_107" type="DEFAULT_VEHTYPE" depart="149.8000000000003" route="route_2" /><vehicle id="vehicle_108" type="DEFAULT_VEHTYPE" depart="151.2000000000003" route="route_0" /><vehicle id="vehicle_109" type="DEFAULT_VEHTYPE" depart="152.6000000000003" route="route_0" /><vehicle id="vehicle_110" type="DEFAULT_VEHTYPE" depart="154.0000000000003" route="route_0" /><vehicle id="vehicle_111" type="DEFAULT_VEHTYPE" depart="155.40000000000032" route="route_2" /><vehicle id="vehicle_112" type="DEFAULT_VEHTYPE" depart="156.80000000000032" route="route_2" /><vehicle id="vehicle_113" type="DEFAULT_VEHTYPE" depart="158.20000000000033" route="route_0" /><vehicle id="vehicle_114" type="DEFAULT_VEHTYPE" depart="159.60000000000034" route="route_2" /><vehicle id="vehicle_115" type="DEFAULT_VEHTYPE" depart="161.00000000000034" route="route_0" /><vehicle id="vehicle_116" type="DEFAULT_VEHTYPE" depart="162.40000000000035" route="route_2" /><vehicle id="vehicle_117" type="DEFAULT_VEHTYPE" depart="163.80000000000035" route="route_2" /><vehicle id="vehicle_118" type="DEFAULT_VEHTYPE" depart="165.20000000000036" route="route_0" /><vehicle id="vehicle_119" type="DEFAULT_VEHTYPE" depart="166.60000000000036" route="route_2" /><vehicle id="vehicle_120" type="DEFAULT_VEHTYPE" depart="168.00000000000037" route="route_0" /><vehicle id="vehicle_121" type="DEFAULT_VEHTYPE" depart="169.40000000000038" route="route_0" /><vehicle id="vehicle_122" type="DEFAULT_VEHTYPE" depart="170.80000000000038" route="route_2" /><vehicle id="vehicle_123" type="DEFAULT_VEHTYPE" depart="172.2000000000004" route="route_2" /><vehicle id="vehicle_124" type="DEFAULT_VEHTYPE" depart="173.6000000000004" route="route_2" /><vehicle id="vehicle_125" type="DEFAULT_VEHTYPE" depart="175.0000000000004" route="route_0" /><vehicle id="vehicle_126" type="DEFAULT_VEHTYPE" depart="176.4000000000004" route="route_2" /><vehicle id="vehicle_127" type="DEFAULT_VEHTYPE" depart="177.8000000000004" route="route_0" /><vehicle id="vehicle_128" type="DEFAULT_VEHTYPE" depart="179.20000000000041" route="route_0" /><vehicle id="vehicle_129" type="DEFAULT_VEHTYPE" depart="180.60000000000042" route="route_0" /><vehicle id="vehicle_130" type="DEFAULT_VEHTYPE" depart="182.00000000000043" route="route_2" /><vehicle id="vehicle_131" type="DEFAULT_VEHTYPE" depart="183.40000000000043" route="route_2" /><vehicle id="vehicle_132" type="DEFAULT_VEHTYPE" depart="184.80000000000044" route="route_2" /><vehicle id="vehicle_133" type="DEFAULT_VEHTYPE" depart="186.20000000000044" route="route_2" /><vehicle id="vehicle_134" type="DEFAULT_VEHTYPE" depart="187.60000000000045" route="route_0" /><vehicle id="vehicle_135" type="DEFAULT_VEHTYPE" depart="189.00000000000045" route="route_2" /><vehicle id="vehicle_136" type="DEFAULT_VEHTYPE" depart="190.40000000000046" route="route_2" /><vehicle id="vehicle_137" type="DEFAULT_VEHTYPE" depart="191.80000000000047" route="route_0" /><vehicle id="vehicle_138" type="DEFAULT_VEHTYPE" depart="193.20000000000047" route="route_0" /><vehicle id="vehicle_139" type="DEFAULT_VEHTYPE" depart="194.60000000000048" route="route_0" /><vehicle id="vehicle_140" type="DEFAULT_VEHTYPE" depart="196.00000000000048" route="route_0" /><vehicle id="vehicle_141" type="DEFAULT_VEHTYPE" depart="197.4000000000005" route="route_0" /><vehicle id="vehicle_142" type="DEFAULT_VEHTYPE" depart="198.8000000000005" route="route_2" /><vehicle id="vehicle_143" type="DEFAULT_VEHTYPE" depart="200.2000000000005" route="route_0" /><vehicle id="vehicle_144" type="DEFAULT_VEHTYPE" depart="201.6000000000005" route="route_0" /><vehicle id="vehicle_145" type="DEFAULT_VEHTYPE" depart="203.0000000000005" route="route_0" /><vehicle id="vehicle_146" type="DEFAULT_VEHTYPE" depart="204.40000000000052" route="route_2" /><vehicle id="vehicle_147" type="DEFAULT_VEHTYPE" depart="205.80000000000052" route="route_0" /><vehicle id="vehicle_148" type="DEFAULT_VEHTYPE" depart="207.20000000000053" route="route_0" /><vehicle id="vehicle_149" type="DEFAULT_VEHTYPE" depart="208.60000000000053" route="route_0" /><vehicle id="vehicle_150" type="DEFAULT_VEHTYPE" depart="210.00000000000054" route="route_2" /><vehicle id="vehicle_151" type="DEFAULT_VEHTYPE" depart="211.40000000000055" route="route_2" /><vehicle id="vehicle_152" type="DEFAULT_VEHTYPE" depart="212.80000000000055" route="route_2" /><vehicle id="vehicle_153" type="DEFAULT_VEHTYPE" depart="214.20000000000056" route="route_0" /><vehicle id="vehicle_154" type="DEFAULT_VEHTYPE" depart="215.60000000000056" route="route_0" /><vehicle id="vehicle_155" type="DEFAULT_VEHTYPE" depart="217.00000000000057" route="route_0" /><vehicle id="vehicle_156" type="DEFAULT_VEHTYPE" depart="218.40000000000057" route="route_0" /><vehicle id="vehicle_157" type="DEFAULT_VEHTYPE" depart="219.80000000000058" route="route_2" /><vehicle id="vehicle_158" type="DEFAULT_VEHTYPE" depart="221.20000000000059" route="route_2" /><vehicle id="vehicle_159" type="DEFAULT_VEHTYPE" depart="222.6000000000006" route="route_0" /><vehicle id="vehicle_160" type="DEFAULT_VEHTYPE" depart="224.0000000000006" route="route_2" /><vehicle id="vehicle_161" type="DEFAULT_VEHTYPE" depart="225.4000000000006" route="route_0" /><vehicle id="vehicle_162" type="DEFAULT_VEHTYPE" depart="226.8000000000006" route="route_0" /><vehicle id="vehicle_163" type="DEFAULT_VEHTYPE" depart="228.2000000000006" route="route_2" /><vehicle id="vehicle_164" type="DEFAULT_VEHTYPE" depart="229.60000000000062" route="route_0" /><vehicle id="vehicle_165" type="DEFAULT_VEHTYPE" depart="231.00000000000063" route="route_0" /><vehicle id="vehicle_166" type="DEFAULT_VEHTYPE" depart="232.40000000000063" route="route_0" /><vehicle id="vehicle_167" type="DEFAULT_VEHTYPE" depart="233.80000000000064" route="route_0" /><vehicle id="vehicle_168" type="DEFAULT_VEHTYPE" depart="235.20000000000064" route="route_0" /><vehicle id="vehicle_169" type="DEFAULT_VEHTYPE" depart="236.60000000000065" route="route_2" /><vehicle id="vehicle_170" type="DEFAULT_VEHTYPE" depart="238.00000000000065" route="route_2" /><vehicle id="vehicle_171" type="DEFAULT_VEHTYPE" depart="239.40000000000066" route="route_2" /><vehicle id="vehicle_172" type="DEFAULT_VEHTYPE" depart="240.80000000000067" route="route_2" /><vehicle id="vehicle_173" type="DEFAULT_VEHTYPE" depart="242.20000000000067" route="route_2" /><vehicle id="vehicle_174" type="DEFAULT_VEHTYPE" depart="243.60000000000068" route="route_2" /><vehicle id="vehicle_175" type="DEFAULT_VEHTYPE" depart="245.00000000000068" route="route_0" /><vehicle id="vehicle_176" type="DEFAULT_VEHTYPE" depart="246.4000000000007" route="route_2" /><vehicle id="vehicle_177" type="DEFAULT_VEHTYPE" depart="247.8000000000007" route="route_0" /><vehicle id="vehicle_178" type="DEFAULT_VEHTYPE" depart="249.2000000000007" route="route_2" /><vehicle id="vehicle_179" type="DEFAULT_VEHTYPE" depart="250.6000000000007" route="route_0" /><vehicle id="vehicle_180" type="DEFAULT_VEHTYPE" depart="252.0000000000007" route="route_0" /><vehicle id="vehicle_181" type="DEFAULT_VEHTYPE" depart="253.40000000000072" route="route_2" /><vehicle id="vehicle_182" type="DEFAULT_VEHTYPE" depart="254.80000000000072" route="route_2" /><vehicle id="vehicle_183" type="DEFAULT_VEHTYPE" depart="256.2000000000007" route="route_2" /><vehicle id="vehicle_184" type="DEFAULT_VEHTYPE" depart="257.6000000000007" route="route_2" /><vehicle id="vehicle_185" type="DEFAULT_VEHTYPE" depart="259.0000000000007" route="route_2" /><vehicle id="vehicle_186" type="DEFAULT_VEHTYPE" depart="260.40000000000066" route="route_2" /><vehicle id="vehicle_187" type="DEFAULT_VEHTYPE" depart="261.80000000000064" route="route_0" /><vehicle id="vehicle_188" type="DEFAULT_VEHTYPE" depart="263.2000000000006" route="route_0" /><vehicle id="vehicle_189" type="DEFAULT_VEHTYPE" depart="264.6000000000006" route="route_2" /><vehicle id="vehicle_190" type="DEFAULT_VEHTYPE" depart="266.00000000000057" route="route_2" /><vehicle id="vehicle_191" type="DEFAULT_VEHTYPE" depart="267.40000000000055" route="route_2" /><vehicle id="vehicle_192" type="DEFAULT_VEHTYPE" depart="268.8000000000005" route="route_2" /><vehicle id="vehicle_193" type="DEFAULT_VEHTYPE" depart="270.2000000000005" route="route_2" /><vehicle id="vehicle_194" type="DEFAULT_VEHTYPE" depart="271.6000000000005" route="route_0" /><vehicle id="vehicle_195" type="DEFAULT_VEHTYPE" depart="273.00000000000045" route="route_2" /><vehicle id="vehicle_196" type="DEFAULT_VEHTYPE" depart="274.40000000000043" route="route_2" /><vehicle id="vehicle_197" type="DEFAULT_VEHTYPE" depart="275.8000000000004" route="route_2" /><vehicle id="vehicle_198" type="DEFAULT_VEHTYPE" depart="277.2000000000004" route="route_0" /><vehicle id="vehicle_199" type="DEFAULT_VEHTYPE" depart="278.60000000000036" route="route_0" /><vehicle id="vehicle_200" type="DEFAULT_VEHTYPE" depart="280.00000000000034" route="route_2" /><vehicle id="vehicle_201" type="DEFAULT_VEHTYPE" depart="281.4000000000003" route="route_0" /><vehicle id="vehicle_202" type="DEFAULT_VEHTYPE" depart="282.8000000000003" route="route_2" /><vehicle id="vehicle_203" type="DEFAULT_VEHTYPE" depart="284.2000000000003" route="route_2" /><vehicle id="vehicle_204" type="DEFAULT_VEHTYPE" depart="285.60000000000025" route="route_0" /><vehicle id="vehicle_205" type="DEFAULT_VEHTYPE" depart="287.0000000000002" route="route_2" /><vehicle id="vehicle_206" type="DEFAULT_VEHTYPE" depart="288.4000000000002" route="route_0" /><vehicle id="vehicle_207" type="DEFAULT_VEHTYPE" depart="289.8000000000002" route="route_0" /><vehicle id="vehicle_208" type="DEFAULT_VEHTYPE" depart="291.20000000000016" route="route_2" /><vehicle id="vehicle_209" type="DEFAULT_VEHTYPE" depart="292.60000000000014" route="route_2" /><vehicle id="vehicle_210" type="DEFAULT_VEHTYPE" depart="294.0000000000001" route="route_0" /><vehicle id="vehicle_211" type="DEFAULT_VEHTYPE" depart="295.4000000000001" route="route_0" /><vehicle id="vehicle_212" type="DEFAULT_VEHTYPE" depart="296.80000000000007" route="route_0" /><vehicle id="vehicle_213" type="DEFAULT_VEHTYPE" depart="298.20000000000005" route="route_0" /><vehicle id="vehicle_214" type="DEFAULT_VEHTYPE" depart="299.6" route="route_0" /><vehicle id="vehicle_215" type="DEFAULT_VEHTYPE" depart="301.0" route="route_2" /><vehicle id="vehicle_216" type="DEFAULT_VEHTYPE" depart="302.4" route="route_2" /><vehicle id="vehicle_217" type="DEFAULT_VEHTYPE" depart="303.79999999999995" route="route_0" /><vehicle id="vehicle_218" type="DEFAULT_VEHTYPE" depart="305.19999999999993" route="route_0" /><vehicle id="vehicle_219" type="DEFAULT_VEHTYPE" depart="306.5999999999999" route="route_2" /><vehicle id="vehicle_220" type="DEFAULT_VEHTYPE" depart="307.9999999999999" route="route_2" /><vehicle id="vehicle_221" type="DEFAULT_VEHTYPE" depart="309.39999999999986" route="route_0" /><vehicle id="vehicle_222" type="DEFAULT_VEHTYPE" depart="310.79999999999984" route="route_2" /><vehicle id="vehicle_223" type="DEFAULT_VEHTYPE" depart="312.1999999999998" route="route_2" /><vehicle id="vehicle_224" type="DEFAULT_VEHTYPE" depart="313.5999999999998" route="route_0" /><vehicle id="vehicle_225" type="DEFAULT_VEHTYPE" depart="314.9999999999998" route="route_0" /><vehicle id="vehicle_226" type="DEFAULT_VEHTYPE" depart="316.39999999999975" route="route_2" /><vehicle id="vehicle_227" type="DEFAULT_VEHTYPE" depart="317.7999999999997" route="route_0" /><vehicle id="vehicle_228" type="DEFAULT_VEHTYPE" depart="319.1999999999997" route="route_2" /><vehicle id="vehicle_229" type="DEFAULT_VEHTYPE" depart="320.5999999999997" route="route_2" /><vehicle id="vehicle_230" type="DEFAULT_VEHTYPE" depart="321.99999999999966" route="route_2" /><vehicle id="vehicle_231" type="DEFAULT_VEHTYPE" depart="323.39999999999964" route="route_0" /><vehicle id="vehicle_232" type="DEFAULT_VEHTYPE" depart="324.7999999999996" route="route_0" /><vehicle id="vehicle_233" type="DEFAULT_VEHTYPE" depart="326.1999999999996" route="route_2" /><vehicle id="vehicle_234" type="DEFAULT_VEHTYPE" depart="327.59999999999957" route="route_0" /><vehicle id="vehicle_235" type="DEFAULT_VEHTYPE" depart="328.99999999999955" route="route_0" /><vehicle id="vehicle_236" type="DEFAULT_VEHTYPE" depart="330.3999999999995" route="route_2" /><vehicle id="vehicle_237" type="DEFAULT_VEHTYPE" depart="331.7999999999995" route="route_2" /><vehicle id="vehicle_238" type="DEFAULT_VEHTYPE" depart="333.1999999999995" route="route_0" /><vehicle id="vehicle_239" type="DEFAULT_VEHTYPE" depart="334.59999999999945" route="route_0" /><vehicle id="vehicle_240" type="DEFAULT_VEHTYPE" depart="335.99999999999943" route="route_0" /><vehicle id="vehicle_241" type="DEFAULT_VEHTYPE" depart="337.3999999999994" route="route_0" /><vehicle id="vehicle_242" type="DEFAULT_VEHTYPE" depart="338.7999999999994" route="route_2" /><vehicle id="vehicle_243" type="DEFAULT_VEHTYPE" depart="340.19999999999936" route="route_2" /><vehicle id="vehicle_244" type="DEFAULT_VEHTYPE" depart="341.59999999999934" route="route_0" /><vehicle id="vehicle_245" type="DEFAULT_VEHTYPE" depart="342.9999999999993" route="route_2" /><vehicle id="vehicle_246" type="DEFAULT_VEHTYPE" depart="344.3999999999993" route="route_0" /><vehicle id="vehicle_247" type="DEFAULT_VEHTYPE" depart="345.7999999999993" route="route_0" /><vehicle id="vehicle_248" type="DEFAULT_VEHTYPE" depart="347.19999999999925" route="route_2" /><vehicle id="vehicle_249" type="DEFAULT_VEHTYPE" depart="348.5999999999992" route="route_0" /><vehicle id="vehicle_250" type="DEFAULT_VEHTYPE" depart="349.9999999999992" route="route_0" /><vehicle id="vehicle_251" type="DEFAULT_VEHTYPE" depart="351.3999999999992" route="route_2" /><vehicle id="vehicle_252" type="DEFAULT_VEHTYPE" depart="352.79999999999916" route="route_2" /><vehicle id="vehicle_253" type="DEFAULT_VEHTYPE" depart="354.19999999999914" route="route_0" /><vehicle id="vehicle_254" type="DEFAULT_VEHTYPE" depart="355.5999999999991" route="route_2" /><vehicle id="vehicle_255" type="DEFAULT_VEHTYPE" depart="356.9999999999991" route="route_2" /><vehicle id="vehicle_256" type="DEFAULT_VEHTYPE" depart="358.39999999999907" route="route_2" /><vehicle id="vehicle_257" type="DEFAULT_VEHTYPE" depart="359.79999999999905" route="route_0" /><vehicle id="vehicle_258" type="DEFAULT_VEHTYPE" depart="361.199999999999" route="route_0" /><vehicle id="vehicle_259" type="DEFAULT_VEHTYPE" depart="362.599999999999" route="route_0" /><vehicle id="vehicle_260" type="DEFAULT_VEHTYPE" depart="363.999999999999" route="route_2" /><vehicle id="vehicle_261" type="DEFAULT_VEHTYPE" depart="365.39999999999895" route="route_0" /><vehicle id="vehicle_262" type="DEFAULT_VEHTYPE" depart="366.79999999999893" route="route_0" /><vehicle id="vehicle_263" type="DEFAULT_VEHTYPE" depart="368.1999999999989" route="route_2" /><vehicle id="vehicle_264" type="DEFAULT_VEHTYPE" depart="369.5999999999989" route="route_0" /><vehicle id="vehicle_265" type="DEFAULT_VEHTYPE" depart="370.99999999999886" route="route_2" /><vehicle id="vehicle_266" type="DEFAULT_VEHTYPE" depart="372.39999999999884" route="route_2" /><vehicle id="vehicle_267" type="DEFAULT_VEHTYPE" depart="373.7999999999988" route="route_2" /><vehicle id="vehicle_268" type="DEFAULT_VEHTYPE" depart="375.1999999999988" route="route_2" /><vehicle id="vehicle_269" type="DEFAULT_VEHTYPE" depart="376.5999999999988" route="route_2" /><vehicle id="vehicle_270" type="DEFAULT_VEHTYPE" depart="377.99999999999875" route="route_0" /><vehicle id="vehicle_271" type="DEFAULT_VEHTYPE" depart="379.3999999999987" route="route_0" /><vehicle id="vehicle_272" type="DEFAULT_VEHTYPE" depart="380.7999999999987" route="route_0" /><vehicle id="vehicle_273" type="DEFAULT_VEHTYPE" depart="382.1999999999987" route="route_2" /><vehicle id="vehicle_274" type="DEFAULT_VEHTYPE" depart="383.59999999999866" route="route_2" /><vehicle id="vehicle_275" type="DEFAULT_VEHTYPE" depart="384.99999999999864" route="route_2" /><vehicle id="vehicle_276" type="DEFAULT_VEHTYPE" depart="386.3999999999986" route="route_0" /><vehicle id="vehicle_277" type="DEFAULT_VEHTYPE" depart="387.7999999999986" route="route_0" /><vehicle id="vehicle_278" type="DEFAULT_VEHTYPE" depart="389.19999999999857" route="route_0" /><vehicle id="vehicle_279" type="DEFAULT_VEHTYPE" depart="390.59999999999854" route="route_0" /><vehicle id="vehicle_280" type="DEFAULT_VEHTYPE" depart="391.9999999999985" route="route_0" /><vehicle id="vehicle_281" type="DEFAULT_VEHTYPE" depart="393.3999999999985" route="route_0" /><vehicle id="vehicle_282" type="DEFAULT_VEHTYPE" depart="394.7999999999985" route="route_2" /><vehicle id="vehicle_283" type="DEFAULT_VEHTYPE" depart="396.19999999999845" route="route_2" /><vehicle id="vehicle_284" type="DEFAULT_VEHTYPE" depart="397.59999999999843" route="route_2" /><vehicle id="vehicle_285" type="DEFAULT_VEHTYPE" depart="398.9999999999984" route="route_0" /><vehicle id="vehicle_286" type="DEFAULT_VEHTYPE" depart="400.3999999999984" route="route_2" /><vehicle id="vehicle_287" type="DEFAULT_VEHTYPE" depart="401.79999999999836" route="route_2" /><vehicle id="vehicle_288" type="DEFAULT_VEHTYPE" depart="403.19999999999834" route="route_0" /><vehicle id="vehicle_289" type="DEFAULT_VEHTYPE" depart="404.5999999999983" route="route_0" /><vehicle id="vehicle_290" type="DEFAULT_VEHTYPE" depart="405.9999999999983" route="route_0" /><vehicle id="vehicle_291" type="DEFAULT_VEHTYPE" depart="407.3999999999983" route="route_2" /><vehicle id="vehicle_292" type="DEFAULT_VEHTYPE" depart="408.79999999999825" route="route_2" /><vehicle id="vehicle_293" type="DEFAULT_VEHTYPE" depart="410.1999999999982" route="route_2" /><vehicle id="vehicle_294" type="DEFAULT_VEHTYPE" depart="411.5999999999982" route="route_2" /><vehicle id="vehicle_295" type="DEFAULT_VEHTYPE" depart="412.9999999999982" route="route_0" /><vehicle id="vehicle_296" type="DEFAULT_VEHTYPE" depart="414.39999999999816" route="route_0" /><vehicle id="vehicle_297" type="DEFAULT_VEHTYPE" depart="415.79999999999814" route="route_0" /><vehicle id="vehicle_298" type="DEFAULT_VEHTYPE" depart="417.1999999999981" route="route_0" /><vehicle id="vehicle_299" type="DEFAULT_VEHTYPE" depart="418.5999999999981" route="route_2" /></routes>