<routes>
    <route id="route_0" edges="-319929498#3 -319929498#2" />
    <route id="route_2" edges="-319929498#3 32038440#11" />
<vehicle id="vehicle_0" type="DEFAULT_VEHTYPE" depart="2.1" route="route_2" departSpeed="5.00" /><vehicle id="vehicle_1" type="DEFAULT_VEHTYPE" depart="4.2" route="route_2" departSpeed="5.00" /><vehicle id="vehicle_2" type="DEFAULT_VEHTYPE" depart="6.300000000000001" route="route_0" departSpeed="5.00" /><vehicle id="vehicle_3" type="DEFAULT_VEHTYPE" depart="8.4" route="route_0" departSpeed="5.00" /><vehicle id="vehicle_4" type="DEFAULT_VEHTYPE" depart="10.5" route="route_2" departSpeed="5.00" /><vehicle id="vehicle_5" type="DEFAULT_VEHTYPE" depart="12.6" route="route_2" departSpeed="5.00" /><vehicle id="vehicle_6" type="DEFAULT_VEHTYPE" depart="14.7" route="route_0" departSpeed="5.00" /><vehicle id="vehicle_7" type="DEFAULT_VEHTYPE" depart="16.8" route="route_2" departSpeed="5.00" /><vehicle id="vehicle_8" type="DEFAULT_VEHTYPE" depart="18.900000000000002" route="route_2" departSpeed="5.00" /><vehicle id="vehicle_9" type="DEFAULT_VEHTYPE" depart="21.000000000000004" route="route_2" departSpeed="5.00" /><vehicle id="vehicle_10" type="DEFAULT_VEHTYPE" depart="23.100000000000005" route="route_0" departSpeed="5.00" /><vehicle id="vehicle_11" type="DEFAULT_VEHTYPE" depart="25.200000000000006" route="route_0" departSpeed="5.00" /><vehicle id="vehicle_12" type="DEFAULT_VEHTYPE" depart="27.300000000000008" route="route_2" departSpeed="5.00" /><vehicle id="vehicle_13" type="DEFAULT_VEHTYPE" depart="29.40000000000001" route="route_0" departSpeed="5.00" /><vehicle id="vehicle_14" type="DEFAULT_VEHTYPE" depart="31.50000000000001" route="route_0" departSpeed="5.00" /><vehicle id="vehicle_15" type="DEFAULT_VEHTYPE" depart="33.60000000000001" route="route_0" departSpeed="5.00" /><vehicle id="vehicle_16" type="DEFAULT_VEHTYPE" depart="35.70000000000001" route="route_0" departSpeed="5.00" /><vehicle id="vehicle_17" type="DEFAULT_VEHTYPE" depart="37.80000000000001" route="route_2" departSpeed="5.00" /><vehicle id="vehicle_18" type="DEFAULT_VEHTYPE" depart="39.90000000000001" route="route_2" departSpeed="5.00" /><vehicle id="vehicle_19" type="DEFAULT_VEHTYPE" depart="42.000000000000014" route="route_0" departSpeed="5.00" /><vehicle id="vehicle_20" type="DEFAULT_VEHTYPE" depart="44.100000000000016" route="route_2" departSpeed="5.00" /><vehicle id="vehicle_21" type="DEFAULT_VEHTYPE" depart="46.20000000000002" route="route_2" departSpeed="5.00" /><vehicle id="vehicle_22" type="DEFAULT_VEHTYPE" depart="48.30000000000002" route="route_2" departSpeed="5.00" /><vehicle id="vehicle_23" type="DEFAULT_VEHTYPE" depart="50.40000000000002" route="route_2" departSpeed="5.00" /><vehicle id="vehicle_24" type="DEFAULT_VEHTYPE" depart="52.50000000000002" route="route_2" departSpeed="5.00" /><vehicle id="vehicle_25" type="DEFAULT_VEHTYPE" depart="54.60000000000002" route="route_0" departSpeed="5.00" /><vehicle id="vehicle_26" type="DEFAULT_VEHTYPE" depart="56.700000000000024" route="route_0" departSpeed="5.00" /><vehicle id="vehicle_27" type="DEFAULT_VEHTYPE" depart="58.800000000000026" route="route_2" departSpeed="5.00" /><vehicle id="vehicle_28" type="DEFAULT_VEHTYPE" depart="60.90000000000003" route="route_2" departSpeed="5.00" /><vehicle id="vehicle_29" type="DEFAULT_VEHTYPE" depart="63.00000000000003" route="route_0" departSpeed="5.00" /><vehicle id="vehicle_30" type="DEFAULT_VEHTYPE" depart="65.10000000000002" route="route_0" departSpeed="5.00" /><vehicle id="vehicle_31" type="DEFAULT_VEHTYPE" depart="67.20000000000002" route="route_0" departSpeed="5.00" /><vehicle id="vehicle_32" type="DEFAULT_VEHTYPE" depart="69.30000000000001" route="route_2" departSpeed="5.00" /><vehicle id="vehicle_33" type="DEFAULT_VEHTYPE" depart="71.4" route="route_0" departSpeed="5.00" /><vehicle id="vehicle_34" type="DEFAULT_VEHTYPE" depart="73.5" route="route_2" departSpeed="5.00" /><vehicle id="vehicle_35" type="DEFAULT_VEHTYPE" depart="75.6" route="route_0" departSpeed="5.00" /><vehicle id="vehicle_36" type="DEFAULT_VEHTYPE" depart="77.69999999999999" route="route_2" departSpeed="5.00" /><vehicle id="vehicle_37" type="DEFAULT_VEHTYPE" depart="79.79999999999998" route="route_2" departSpeed="5.00" /><vehicle id="vehicle_38" type="DEFAULT_VEHTYPE" depart="81.89999999999998" route="route_0" departSpeed="5.00" /><vehicle id="vehicle_39" type="DEFAULT_VEHTYPE" depart="83.99999999999997" route="route_0" departSpeed="5.00" /><vehicle id="vehicle_40" type="DEFAULT_VEHTYPE" depart="86.09999999999997" route="route_0" departSpeed="5.00" /><vehicle id="vehicle_41" type="DEFAULT_VEHTYPE" depart="88.19999999999996" route="route_0" departSpeed="5.00" /><vehicle id="vehicle_42" type="DEFAULT_VEHTYPE" depart="90.29999999999995" route="route_0" departSpeed="5.00" /><vehicle id="vehicle_43" type="DEFAULT_VEHTYPE" depart="92.39999999999995" route="route_0" departSpeed="5.00" /><vehicle id="vehicle_44" type="DEFAULT_VEHTYPE" depart="94.49999999999994" route="route_2" departSpeed="5.00" /><vehicle id="vehicle_45" type="DEFAULT_VEHTYPE" depart="96.59999999999994" route="route_0" departSpeed="5.00" /><vehicle id="vehicle_46" type="DEFAULT_VEHTYPE" depart="98.69999999999993" route="route_0" departSpeed="5.00" /><vehicle id="vehicle_47" type="DEFAULT_VEHTYPE" depart="100.79999999999993" route="route_0" departSpeed="5.00" /><vehicle id="vehicle_48" type="DEFAULT_VEHTYPE" depart="102.89999999999992" route="route_2" departSpeed="5.00" /><vehicle id="vehicle_49" type="DEFAULT_VEHTYPE" depart="104.99999999999991" route="route_0" departSpeed="5.00" /><vehicle id="vehicle_50" type="DEFAULT_VEHTYPE" depart="107.09999999999991" route="route_2" departSpeed="5.00" /><vehicle id="vehicle_51" type="DEFAULT_VEHTYPE" depart="109.1999999999999" route="route_0" departSpeed="5.00" /><vehicle id="vehicle_52" type="DEFAULT_VEHTYPE" depart="111.2999999999999" route="route_0" departSpeed="5.00" /><vehicle id="vehicle_53" type="DEFAULT_VEHTYPE" depart="113.39999999999989" route="route_2" departSpeed="5.00" /><vehicle id="vehicle_54" type="DEFAULT_VEHTYPE" depart="115.49999999999989" route="route_0" departSpeed="5.00" /><vehicle id="vehicle_55" type="DEFAULT_VEHTYPE" depart="117.59999999999988" route="route_0" departSpeed="5.00" /><vehicle id="vehicle_56" type="DEFAULT_VEHTYPE" depart="119.69999999999987" route="route_0" departSpeed="5.00" /><vehicle id="vehicle_57" type="DEFAULT_VEHTYPE" depart="121.79999999999987" route="route_2" departSpeed="5.00" /><vehicle id="vehicle_58" type="DEFAULT_VEHTYPE" depart="123.89999999999986" route="route_0" departSpeed="5.00" /><vehicle id="vehicle_59" type="DEFAULT_VEHTYPE" depart="125.99999999999986" route="route_0" departSpeed="5.00" /><vehicle id="vehicle_60" type="DEFAULT_VEHTYPE" depart="128.09999999999985" route="route_0" departSpeed="5.00" /><vehicle id="vehicle_61" type="DEFAULT_VEHTYPE" depart="130.19999999999985" route="route_0" departSpeed="5.00" /><vehicle id="vehicle_62" type="DEFAULT_VEHTYPE" depart="132.29999999999984" route="route_2" departSpeed="5.00" /><vehicle id="vehicle_63" type="DEFAULT_VEHTYPE" depart="134.39999999999984" route="route_0" departSpeed="5.00" /><vehicle id="vehicle_64" type="DEFAULT_VEHTYPE" depart="136.49999999999983" route="route_2" departSpeed="5.00" /><vehicle id="vehicle_65" type="DEFAULT_VEHTYPE" depart="138.59999999999982" route="route_2" departSpeed="5.00" /><vehicle id="vehicle_66" type="DEFAULT_VEHTYPE" depart="140.69999999999982" route="route_2" departSpeed="5.00" /><vehicle id="vehicle_67" type="DEFAULT_VEHTYPE" depart="142.7999999999998" route="route_2" departSpeed="5.00" /><vehicle id="vehicle_68" type="DEFAULT_VEHTYPE" depart="144.8999999999998" route="route_0" departSpeed="5.00" /><vehicle id="vehicle_69" type="DEFAULT_VEHTYPE" depart="146.9999999999998" route="route_2" departSpeed="5.00" /><vehicle id="vehicle_70" type="DEFAULT_VEHTYPE" depart="149.0999999999998" route="route_0" departSpeed="5.00" /><vehicle id="vehicle_71" type="DEFAULT_VEHTYPE" depart="151.1999999999998" route="route_2" departSpeed="5.00" /><vehicle id="vehicle_72" type="DEFAULT_VEHTYPE" depart="153.29999999999978" route="route_0" departSpeed="5.00" /><vehicle id="vehicle_73" type="DEFAULT_VEHTYPE" depart="155.39999999999978" route="route_0" departSpeed="5.00" /><vehicle id="vehicle_74" type="DEFAULT_VEHTYPE" depart="157.49999999999977" route="route_0" departSpeed="5.00" /><vehicle id="vehicle_75" type="DEFAULT_VEHTYPE" depart="159.59999999999977" route="route_0" departSpeed="5.00" /><vehicle id="vehicle_76" type="DEFAULT_VEHTYPE" depart="161.69999999999976" route="route_2" departSpeed="5.00" /><vehicle id="vehicle_77" type="DEFAULT_VEHTYPE" depart="163.79999999999976" route="route_0" departSpeed="5.00" /><vehicle id="vehicle_78" type="DEFAULT_VEHTYPE" depart="165.89999999999975" route="route_2" departSpeed="5.00" /><vehicle id="vehicle_79" type="DEFAULT_VEHTYPE" depart="167.99999999999974" route="route_2" departSpeed="5.00" /><vehicle id="vehicle_80" type="DEFAULT_VEHTYPE" depart="170.09999999999974" route="route_0" departSpeed="5.00" /><vehicle id="vehicle_81" type="DEFAULT_VEHTYPE" depart="172.19999999999973" route="route_2" departSpeed="5.00" /><vehicle id="vehicle_82" type="DEFAULT_VEHTYPE" depart="174.29999999999973" route="route_0" departSpeed="5.00" /><vehicle id="vehicle_83" type="DEFAULT_VEHTYPE" depart="176.39999999999972" route="route_0" departSpeed="5.00" /><vehicle id="vehicle_84" type="DEFAULT_VEHTYPE" depart="178.49999999999972" route="route_0" departSpeed="5.00" /><vehicle id="vehicle_85" type="DEFAULT_VEHTYPE" depart="180.5999999999997" route="route_0" departSpeed="5.00" /><vehicle id="vehicle_86" type="DEFAULT_VEHTYPE" depart="182.6999999999997" route="route_2" departSpeed="5.00" /><vehicle id="vehicle_87" type="DEFAULT_VEHTYPE" depart="184.7999999999997" route="route_0" departSpeed="5.00" /><vehicle id="vehicle_88" type="DEFAULT_VEHTYPE" depart="186.8999999999997" route="route_0" departSpeed="5.00" /><vehicle id="vehicle_89" type="DEFAULT_VEHTYPE" depart="188.9999999999997" route="route_2" departSpeed="5.00" /><vehicle id="vehicle_90" type="DEFAULT_VEHTYPE" depart="191.09999999999968" route="route_0" departSpeed="5.00" /><vehicle id="vehicle_91" type="DEFAULT_VEHTYPE" depart="193.19999999999968" route="route_0" departSpeed="5.00" /><vehicle id="vehicle_92" type="DEFAULT_VEHTYPE" depart="195.29999999999967" route="route_2" departSpeed="5.00" /><vehicle id="vehicle_93" type="DEFAULT_VEHTYPE" depart="197.39999999999966" route="route_0" departSpeed="5.00" /><vehicle id="vehicle_94" type="DEFAULT_VEHTYPE" depart="199.49999999999966" route="route_0" departSpeed="5.00" /><vehicle id="vehicle_95" type="DEFAULT_VEHTYPE" depart="201.59999999999965" route="route_2" departSpeed="5.00" /><vehicle id="vehicle_96" type="DEFAULT_VEHTYPE" depart="203.69999999999965" route="route_2" departSpeed="5.00" /><vehicle id="vehicle_97" type="DEFAULT_VEHTYPE" depart="205.79999999999964" route="route_2" departSpeed="5.00" /><vehicle id="vehicle_98" type="DEFAULT_VEHTYPE" depart="207.89999999999964" route="route_2" departSpeed="5.00" /><vehicle id="vehicle_99" type="DEFAULT_VEHTYPE" depart="209.99999999999963" route="route_0" departSpeed="5.00" /><vehicle id="vehicle_100" type="DEFAULT_VEHTYPE" depart="212.09999999999962" route="route_2" departSpeed="5.00" /><vehicle id="vehicle_101" type="DEFAULT_VEHTYPE" depart="214.19999999999962" route="route_2" departSpeed="5.00" /><vehicle id="vehicle_102" type="DEFAULT_VEHTYPE" depart="216.2999999999996" route="route_2" departSpeed="5.00" /><vehicle id="vehicle_103" type="DEFAULT_VEHTYPE" depart="218.3999999999996" route="route_2" departSpeed="5.00" /><vehicle id="vehicle_104" type="DEFAULT_VEHTYPE" depart="220.4999999999996" route="route_0" departSpeed="5.00" /><vehicle id="vehicle_105" type="DEFAULT_VEHTYPE" depart="222.5999999999996" route="route_0" departSpeed="5.00" /><vehicle id="vehicle_106" type="DEFAULT_VEHTYPE" depart="224.6999999999996" route="route_2" departSpeed="5.00" /><vehicle id="vehicle_107" type="DEFAULT_VEHTYPE" depart="226.79999999999959" route="route_0" departSpeed="5.00" /><vehicle id="vehicle_108" type="DEFAULT_VEHTYPE" depart="228.89999999999958" route="route_2" departSpeed="5.00" /><vehicle id="vehicle_109" type="DEFAULT_VEHTYPE" depart="230.99999999999957" route="route_2" departSpeed="5.00" /><vehicle id="vehicle_110" type="DEFAULT_VEHTYPE" depart="233.09999999999957" route="route_2" departSpeed="5.00" /><vehicle id="vehicle_111" type="DEFAULT_VEHTYPE" depart="235.19999999999956" route="route_0" departSpeed="5.00" /><vehicle id="vehicle_112" type="DEFAULT_VEHTYPE" depart="237.29999999999956" route="route_2" departSpeed="5.00" /><vehicle id="vehicle_113" type="DEFAULT_VEHTYPE" depart="239.39999999999955" route="route_2" departSpeed="5.00" /><vehicle id="vehicle_114" type="DEFAULT_VEHTYPE" depart="241.49999999999955" route="route_2" departSpeed="5.00" /><vehicle id="vehicle_115" type="DEFAULT_VEHTYPE" depart="243.59999999999954" route="route_2" departSpeed="5.00" /><vehicle id="vehicle_116" type="DEFAULT_VEHTYPE" depart="245.69999999999953" route="route_0" departSpeed="5.00" /><vehicle id="vehicle_117" type="DEFAULT_VEHTYPE" depart="247.79999999999953" route="route_0" departSpeed="5.00" /><vehicle id="vehicle_118" type="DEFAULT_VEHTYPE" depart="249.89999999999952" route="route_2" departSpeed="5.00" /><vehicle id="vehicle_119" type="DEFAULT_VEHTYPE" depart="251.99999999999952" route="route_2" departSpeed="5.00" /><vehicle id="vehicle_120" type="DEFAULT_VEHTYPE" depart="254.0999999999995" route="route_0" departSpeed="5.00" /><vehicle id="vehicle_121" type="DEFAULT_VEHTYPE" depart="256.19999999999953" route="route_0" departSpeed="5.00" /><vehicle id="vehicle_122" type="DEFAULT_VEHTYPE" depart="258.29999999999956" route="route_0" departSpeed="5.00" /><vehicle id="vehicle_123" type="DEFAULT_VEHTYPE" depart="260.3999999999996" route="route_0" departSpeed="5.00" /><vehicle id="vehicle_124" type="DEFAULT_VEHTYPE" depart="262.4999999999996" route="route_2" departSpeed="5.00" /><vehicle id="vehicle_125" type="DEFAULT_VEHTYPE" depart="264.5999999999996" route="route_2" departSpeed="5.00" /><vehicle id="vehicle_126" type="DEFAULT_VEHTYPE" depart="266.69999999999965" route="route_2" departSpeed="5.00" /><vehicle id="vehicle_127" type="DEFAULT_VEHTYPE" depart="268.79999999999967" route="route_2" departSpeed="5.00" /><vehicle id="vehicle_128" type="DEFAULT_VEHTYPE" depart="270.8999999999997" route="route_2" departSpeed="5.00" /><vehicle id="vehicle_129" type="DEFAULT_VEHTYPE" depart="272.9999999999997" route="route_2" departSpeed="5.00" /><vehicle id="vehicle_130" type="DEFAULT_VEHTYPE" depart="275.09999999999974" route="route_2" departSpeed="5.00" /><vehicle id="vehicle_131" type="DEFAULT_VEHTYPE" depart="277.19999999999976" route="route_2" departSpeed="5.00" /><vehicle id="vehicle_132" type="DEFAULT_VEHTYPE" depart="279.2999999999998" route="route_0" departSpeed="5.00" /><vehicle id="vehicle_133" type="DEFAULT_VEHTYPE" depart="281.3999999999998" route="route_2" departSpeed="5.00" /><vehicle id="vehicle_134" type="DEFAULT_VEHTYPE" depart="283.49999999999983" route="route_0" departSpeed="5.00" /><vehicle id="vehicle_135" type="DEFAULT_VEHTYPE" depart="285.59999999999985" route="route_0" departSpeed="5.00" /><vehicle id="vehicle_136" type="DEFAULT_VEHTYPE" depart="287.6999999999999" route="route_2" departSpeed="5.00" /><vehicle id="vehicle_137" type="DEFAULT_VEHTYPE" depart="289.7999999999999" route="route_2" departSpeed="5.00" /><vehicle id="vehicle_138" type="DEFAULT_VEHTYPE" depart="291.8999999999999" route="route_2" departSpeed="5.00" /><vehicle id="vehicle_139" type="DEFAULT_VEHTYPE" depart="293.99999999999994" route="route_0" departSpeed="5.00" /><vehicle id="vehicle_140" type="DEFAULT_VEHTYPE" depart="296.09999999999997" route="route_0" departSpeed="5.00" /><vehicle id="vehicle_141" type="DEFAULT_VEHTYPE" depart="298.2" route="route_2" departSpeed="5.00" /><vehicle id="vehicle_142" type="DEFAULT_VEHTYPE" depart="300.3" route="route_0" departSpeed="5.00" /><vehicle id="vehicle_143" type="DEFAULT_VEHTYPE" depart="302.40000000000003" route="route_2" departSpeed="5.00" /><vehicle id="vehicle_144" type="DEFAULT_VEHTYPE" depart="304.50000000000006" route="route_2" departSpeed="5.00" /><vehicle id="vehicle_145" type="DEFAULT_VEHTYPE" depart="306.6000000000001" route="route_2" departSpeed="5.00" /><vehicle id="vehicle_146" type="DEFAULT_VEHTYPE" depart="308.7000000000001" route="route_2" departSpeed="5.00" /><vehicle id="vehicle_147" type="DEFAULT_VEHTYPE" depart="310.8000000000001" route="route_0" departSpeed="5.00" /><vehicle id="vehicle_148" type="DEFAULT_VEHTYPE" depart="312.90000000000015" route="route_0" departSpeed="5.00" /><vehicle id="vehicle_149" type="DEFAULT_VEHTYPE" depart="315.00000000000017" route="route_0" departSpeed="5.00" /><vehicle id="vehicle_150" type="DEFAULT_VEHTYPE" depart="317.1000000000002" route="route_2" departSpeed="5.00" /><vehicle id="vehicle_151" type="DEFAULT_VEHTYPE" depart="319.2000000000002" route="route_2" departSpeed="5.00" /><vehicle id="vehicle_152" type="DEFAULT_VEHTYPE" depart="321.30000000000024" route="route_0" departSpeed="5.00" /><vehicle id="vehicle_153" type="DEFAULT_VEHTYPE" depart="323.40000000000026" route="route_2" departSpeed="5.00" /><vehicle id="vehicle_154" type="DEFAULT_VEHTYPE" depart="325.5000000000003" route="route_2" departSpeed="5.00" /><vehicle id="vehicle_155" type="DEFAULT_VEHTYPE" depart="327.6000000000003" route="route_2" departSpeed="5.00" /><vehicle id="vehicle_156" type="DEFAULT_VEHTYPE" depart="329.70000000000033" route="route_2" departSpeed="5.00" /><vehicle id="vehicle_157" type="DEFAULT_VEHTYPE" depart="331.80000000000035" route="route_2" departSpeed="5.00" /><vehicle id="vehicle_158" type="DEFAULT_VEHTYPE" depart="333.9000000000004" route="route_0" departSpeed="5.00" /><vehicle id="vehicle_159" type="DEFAULT_VEHTYPE" depart="336.0000000000004" route="route_2" departSpeed="5.00" /><vehicle id="vehicle_160" type="DEFAULT_VEHTYPE" depart="338.1000000000004" route="route_2" departSpeed="5.00" /><vehicle id="vehicle_161" type="DEFAULT_VEHTYPE" depart="340.20000000000044" route="route_2" departSpeed="5.00" /><vehicle id="vehicle_162" type="DEFAULT_VEHTYPE" depart="342.30000000000047" route="route_2" departSpeed="5.00" /><vehicle id="vehicle_163" type="DEFAULT_VEHTYPE" depart="344.4000000000005" route="route_2" departSpeed="5.00" /><vehicle id="vehicle_164" type="DEFAULT_VEHTYPE" depart="346.5000000000005" route="route_2" departSpeed="5.00" /><vehicle id="vehicle_165" type="DEFAULT_VEHTYPE" depart="348.60000000000053" route="route_0" departSpeed="5.00" /><vehicle id="vehicle_166" type="DEFAULT_VEHTYPE" depart="350.70000000000056" route="route_2" departSpeed="5.00" /><vehicle id="vehicle_167" type="DEFAULT_VEHTYPE" depart="352.8000000000006" route="route_2" departSpeed="5.00" /><vehicle id="vehicle_168" type="DEFAULT_VEHTYPE" depart="354.9000000000006" route="route_2" departSpeed="5.00" /><vehicle id="vehicle_169" type="DEFAULT_VEHTYPE" depart="357.0000000000006" route="route_2" departSpeed="5.00" /><vehicle id="vehicle_170" type="DEFAULT_VEHTYPE" depart="359.10000000000065" route="route_0" departSpeed="5.00" /><vehicle id="vehicle_171" type="DEFAULT_VEHTYPE" depart="361.20000000000067" route="route_2" departSpeed="5.00" /><vehicle id="vehicle_172" type="DEFAULT_VEHTYPE" depart="363.3000000000007" route="route_0" departSpeed="5.00" /><vehicle id="vehicle_173" type="DEFAULT_VEHTYPE" depart="365.4000000000007" route="route_0" departSpeed="5.00" /><vehicle id="vehicle_174" type="DEFAULT_VEHTYPE" depart="367.50000000000074" route="route_0" departSpeed="5.00" /><vehicle id="vehicle_175" type="DEFAULT_VEHTYPE" depart="369.60000000000076" route="route_0" departSpeed="5.00" /><vehicle id="vehicle_176" type="DEFAULT_VEHTYPE" depart="371.7000000000008" route="route_0" departSpeed="5.00" /><vehicle id="vehicle_177" type="DEFAULT_VEHTYPE" depart="373.8000000000008" route="route_0" departSpeed="5.00" /><vehicle id="vehicle_178" type="DEFAULT_VEHTYPE" depart="375.90000000000083" route="route_0" departSpeed="5.00" /><vehicle id="vehicle_179" type="DEFAULT_VEHTYPE" depart="378.00000000000085" route="route_0" departSpeed="5.00" /><vehicle id="vehicle_180" type="DEFAULT_VEHTYPE" depart="380.1000000000009" route="route_0" departSpeed="5.00" /><vehicle id="vehicle_181" type="DEFAULT_VEHTYPE" depart="382.2000000000009" route="route_0" departSpeed="5.00" /><vehicle id="vehicle_182" type="DEFAULT_VEHTYPE" depart="384.3000000000009" route="route_0" departSpeed="5.00" /><vehicle id="vehicle_183" type="DEFAULT_VEHTYPE" depart="386.40000000000094" route="route_0" departSpeed="5.00" /><vehicle id="vehicle_184" type="DEFAULT_VEHTYPE" depart="388.50000000000097" route="route_0" departSpeed="5.00" /><vehicle id="vehicle_185" type="DEFAULT_VEHTYPE" depart="390.600000000001" route="route_2" departSpeed="5.00" /><vehicle id="vehicle_186" type="DEFAULT_VEHTYPE" depart="392.700000000001" route="route_2" departSpeed="5.00" /><vehicle id="vehicle_187" type="DEFAULT_VEHTYPE" depart="394.80000000000103" route="route_0" departSpeed="5.00" /><vehicle id="vehicle_188" type="DEFAULT_VEHTYPE" depart="396.90000000000106" route="route_0" departSpeed="5.00" /><vehicle id="vehicle_189" type="DEFAULT_VEHTYPE" depart="399.0000000000011" route="route_0" departSpeed="5.00" /><vehicle id="vehicle_190" type="DEFAULT_VEHTYPE" depart="401.1000000000011" route="route_0" departSpeed="5.00" /><vehicle id="vehicle_191" type="DEFAULT_VEHTYPE" depart="403.2000000000011" route="route_2" departSpeed="5.00" /><vehicle id="vehicle_192" type="DEFAULT_VEHTYPE" depart="405.30000000000115" route="route_2" departSpeed="5.00" /><vehicle id="vehicle_193" type="DEFAULT_VEHTYPE" depart="407.40000000000117" route="route_2" departSpeed="5.00" /><vehicle id="vehicle_194" type="DEFAULT_VEHTYPE" depart="409.5000000000012" route="route_2" departSpeed="5.00" /><vehicle id="vehicle_195" type="DEFAULT_VEHTYPE" depart="411.6000000000012" route="route_0" departSpeed="5.00" /><vehicle id="vehicle_196" type="DEFAULT_VEHTYPE" depart="413.70000000000124" route="route_0" departSpeed="5.00" /><vehicle id="vehicle_197" type="DEFAULT_VEHTYPE" depart="415.80000000000126" route="route_2" departSpeed="5.00" /><vehicle id="vehicle_198" type="DEFAULT_VEHTYPE" depart="417.9000000000013" route="route_0" departSpeed="5.00" /><vehicle id="vehicle_199" type="DEFAULT_VEHTYPE" depart="420.0000000000013" route="route_0" departSpeed="5.00" /><vehicle id="vehicle_200" type="DEFAULT_VEHTYPE" depart="422.10000000000133" route="route_0" departSpeed="5.00" /><vehicle id="vehicle_201" type="DEFAULT_VEHTYPE" depart="424.20000000000135" route="route_2" departSpeed="5.00" /><vehicle id="vehicle_202" type="DEFAULT_VEHTYPE" depart="426.3000000000014" route="route_2" departSpeed="5.00" /><vehicle id="vehicle_203" type="DEFAULT_VEHTYPE" depart="428.4000000000014" route="route_0" departSpeed="5.00" /><vehicle id="vehicle_204" type="DEFAULT_VEHTYPE" depart="430.5000000000014" route="route_2" departSpeed="5.00" /><vehicle id="vehicle_205" type="DEFAULT_VEHTYPE" depart="432.60000000000144" route="route_0" departSpeed="5.00" /><vehicle id="vehicle_206" type="DEFAULT_VEHTYPE" depart="434.70000000000147" route="route_0" departSpeed="5.00" /><vehicle id="vehicle_207" type="DEFAULT_VEHTYPE" depart="436.8000000000015" route="route_0" departSpeed="5.00" /><vehicle id="vehicle_208" type="DEFAULT_VEHTYPE" depart="438.9000000000015" route="route_2" departSpeed="5.00" /><vehicle id="vehicle_209" type="DEFAULT_VEHTYPE" depart="441.00000000000153" route="route_2" departSpeed="5.00" /><vehicle id="vehicle_210" type="DEFAULT_VEHTYPE" depart="443.10000000000156" route="route_2" departSpeed="5.00" /><vehicle id="vehicle_211" type="DEFAULT_VEHTYPE" depart="445.2000000000016" route="route_0" departSpeed="5.00" /><vehicle id="vehicle_212" type="DEFAULT_VEHTYPE" depart="447.3000000000016" route="route_2" departSpeed="5.00" /><vehicle id="vehicle_213" type="DEFAULT_VEHTYPE" depart="449.4000000000016" route="route_0" departSpeed="5.00" /><vehicle id="vehicle_214" type="DEFAULT_VEHTYPE" depart="451.50000000000165" route="route_0" departSpeed="5.00" /><vehicle id="vehicle_215" type="DEFAULT_VEHTYPE" depart="453.60000000000167" route="route_2" departSpeed="5.00" /><vehicle id="vehicle_216" type="DEFAULT_VEHTYPE" depart="455.7000000000017" route="route_2" departSpeed="5.00" /><vehicle id="vehicle_217" type="DEFAULT_VEHTYPE" depart="457.8000000000017" route="route_0" departSpeed="5.00" /><vehicle id="vehicle_218" type="DEFAULT_VEHTYPE" depart="459.90000000000174" route="route_2" departSpeed="5.00" /><vehicle id="vehicle_219" type="DEFAULT_VEHTYPE" depart="462.00000000000176" route="route_2" departSpeed="5.00" /><vehicle id="vehicle_220" type="DEFAULT_VEHTYPE" depart="464.1000000000018" route="route_2" departSpeed="5.00" /><vehicle id="vehicle_221" type="DEFAULT_VEHTYPE" depart="466.2000000000018" route="route_0" departSpeed="5.00" /><vehicle id="vehicle_222" type="DEFAULT_VEHTYPE" depart="468.30000000000183" route="route_0" departSpeed="5.00" /><vehicle id="vehicle_223" type="DEFAULT_VEHTYPE" depart="470.40000000000185" route="route_0" departSpeed="5.00" /><vehicle id="vehicle_224" type="DEFAULT_VEHTYPE" depart="472.5000000000019" route="route_0" departSpeed="5.00" /><vehicle id="vehicle_225" type="DEFAULT_VEHTYPE" depart="474.6000000000019" route="route_2" departSpeed="5.00" /><vehicle id="vehicle_226" type="DEFAULT_VEHTYPE" depart="476.7000000000019" route="route_2" departSpeed="5.00" /><vehicle id="vehicle_227" type="DEFAULT_VEHTYPE" depart="478.80000000000194" route="route_2" departSpeed="5.00" /><vehicle id="vehicle_228" type="DEFAULT_VEHTYPE" depart="480.90000000000197" route="route_0" departSpeed="5.00" /><vehicle id="vehicle_229" type="DEFAULT_VEHTYPE" depart="483.000000000002" route="route_0" departSpeed="5.00" /><vehicle id="vehicle_230" type="DEFAULT_VEHTYPE" depart="485.100000000002" route="route_2" departSpeed="5.00" /><vehicle id="vehicle_231" type="DEFAULT_VEHTYPE" depart="487.20000000000203" route="route_0" departSpeed="5.00" /><vehicle id="vehicle_232" type="DEFAULT_VEHTYPE" depart="489.30000000000206" route="route_2" departSpeed="5.00" /><vehicle id="vehicle_233" type="DEFAULT_VEHTYPE" depart="491.4000000000021" route="route_2" departSpeed="5.00" /><vehicle id="vehicle_234" type="DEFAULT_VEHTYPE" depart="493.5000000000021" route="route_2" departSpeed="5.00" /><vehicle id="vehicle_235" type="DEFAULT_VEHTYPE" depart="495.6000000000021" route="route_0" departSpeed="5.00" /><vehicle id="vehicle_236" type="DEFAULT_VEHTYPE" depart="497.70000000000215" route="route_2" departSpeed="5.00" /><vehicle id="vehicle_237" type="DEFAULT_VEHTYPE" depart="499.80000000000217" route="route_2" departSpeed="5.00" /><vehicle id="vehicle_238" type="DEFAULT_VEHTYPE" depart="501.9000000000022" route="route_2" departSpeed="5.00" /><vehicle id="vehicle_239" type="DEFAULT_VEHTYPE" depart="504.0000000000022" route="route_0" departSpeed="5.00" /><vehicle id="vehicle_240" type="DEFAULT_VEHTYPE" depart="506.10000000000224" route="route_2" departSpeed="5.00" /><vehicle id="vehicle_241" type="DEFAULT_VEHTYPE" depart="508.20000000000226" route="route_2" departSpeed="5.00" /><vehicle id="vehicle_242" type="DEFAULT_VEHTYPE" depart="510.3000000000023" route="route_0" departSpeed="5.00" /><vehicle id="vehicle_243" type="DEFAULT_VEHTYPE" depart="512.4000000000023" route="route_0" departSpeed="5.00" /><vehicle id="vehicle_244" type="DEFAULT_VEHTYPE" depart="514.5000000000023" route="route_0" departSpeed="5.00" /><vehicle id="vehicle_245" type="DEFAULT_VEHTYPE" depart="516.6000000000023" route="route_0" departSpeed="5.00" /><vehicle id="vehicle_246" type="DEFAULT_VEHTYPE" depart="518.7000000000023" route="route_0" departSpeed="5.00" /><vehicle id="vehicle_247" type="DEFAULT_VEHTYPE" depart="520.8000000000023" route="route_0" departSpeed="5.00" /><vehicle id="vehicle_248" type="DEFAULT_VEHTYPE" depart="522.9000000000024" route="route_2" departSpeed="5.00" /><vehicle id="vehicle_249" type="DEFAULT_VEHTYPE" depart="525.0000000000024" route="route_0" departSpeed="5.00" /><vehicle id="vehicle_250" type="DEFAULT_VEHTYPE" depart="527.1000000000024" route="route_0" departSpeed="5.00" /><vehicle id="vehicle_251" type="DEFAULT_VEHTYPE" depart="529.2000000000024" route="route_2" departSpeed="5.00" /><vehicle id="vehicle_252" type="DEFAULT_VEHTYPE" depart="531.3000000000025" route="route_0" departSpeed="5.00" /><vehicle id="vehicle_253" type="DEFAULT_VEHTYPE" depart="533.4000000000025" route="route_2" departSpeed="5.00" /><vehicle id="vehicle_254" type="DEFAULT_VEHTYPE" depart="535.5000000000025" route="route_2" departSpeed="5.00" /><vehicle id="vehicle_255" type="DEFAULT_VEHTYPE" depart="537.6000000000025" route="route_2" departSpeed="5.00" /><vehicle id="vehicle_256" type="DEFAULT_VEHTYPE" depart="539.7000000000025" route="route_0" departSpeed="5.00" /><vehicle id="vehicle_257" type="DEFAULT_VEHTYPE" depart="541.8000000000026" route="route_0" departSpeed="5.00" /><vehicle id="vehicle_258" type="DEFAULT_VEHTYPE" depart="543.9000000000026" route="route_2" departSpeed="5.00" /><vehicle id="vehicle_259" type="DEFAULT_VEHTYPE" depart="546.0000000000026" route="route_2" departSpeed="5.00" /><vehicle id="vehicle_260" type="DEFAULT_VEHTYPE" depart="548.1000000000026" route="route_2" departSpeed="5.00" /><vehicle id="vehicle_261" type="DEFAULT_VEHTYPE" depart="550.2000000000027" route="route_0" departSpeed="5.00" /><vehicle id="vehicle_262" type="DEFAULT_VEHTYPE" depart="552.3000000000027" route="route_0" departSpeed="5.00" /><vehicle id="vehicle_263" type="DEFAULT_VEHTYPE" depart="554.4000000000027" route="route_2" departSpeed="5.00" /><vehicle id="vehicle_264" type="DEFAULT_VEHTYPE" depart="556.5000000000027" route="route_2" departSpeed="5.00" /><vehicle id="vehicle_265" type="DEFAULT_VEHTYPE" depart="558.6000000000028"