<routes>
    <route id="route_0" edges="-319929498#3 -319929498#2" />
    <route id="route_2" edges="-319929498#3 32038440#11" />
<vehicle id="vehicle_0" type="DEFAULT_VEHTYPE" depart="10.5" route="route_2" departSpeed="5.00" /><vehicle id="vehicle_1" type="DEFAULT_VEHTYPE" depart="21.0" route="route_2" departSpeed="5.00" /><vehicle id="vehicle_2" type="DEFAULT_VEHTYPE" depart="31.5" route="route_0" departSpeed="5.00" /><vehicle id="vehicle_3" type="DEFAULT_VEHTYPE" depart="42.0" route="route_0" departSpeed="5.00" /><vehicle id="vehicle_4" type="DEFAULT_VEHTYPE" depart="52.5" route="route_0" departSpeed="5.00" /><vehicle id="vehicle_5" type="DEFAULT_VEHTYPE" depart="63.0" route="route_2" departSpeed="5.00" /><vehicle id="vehicle_6" type="DEFAULT_VEHTYPE" depart="73.5" route="route_2" departSpeed="5.00" /><vehicle id="vehicle_7" type="DEFAULT_VEHTYPE" depart="84.0" route="route_0" departSpeed="5.00" /><vehicle id="vehicle_8" type="DEFAULT_VEHTYPE" depart="94.5" route="route_2" departSpeed="5.00" /><vehicle id="vehicle_9" type="DEFAULT_VEHTYPE" depart="105.0" route="route_0" departSpeed="5.00" /><vehicle id="vehicle_10" type="DEFAULT_VEHTYPE" depart="115.5" route="route_2" departSpeed="5.00" /><vehicle id="vehicle_11" type="DEFAULT_VEHTYPE" depart="126.0" route="route_2" departSpeed="5.00" /><vehicle id="vehicle_12" type="DEFAULT_VEHTYPE" depart="136.5" route="route_0" departSpeed="5.00" /><vehicle id="vehicle_13" type="DEFAULT_VEHTYPE" depart="147.0" route="route_0" departSpeed="5.00" /><vehicle id="vehicle_14" type="DEFAULT_VEHTYPE" depart="157.5" route="route_2" departSpeed="5.00" /><vehicle id="vehicle_15" type="DEFAULT_VEHTYPE" depart="168.0" route="route_0" departSpeed="5.00" /><vehicle id="vehicle_16" type="DEFAULT_VEHTYPE" depart="178.5" route="route_0" departSpeed="5.00" /><vehicle id="vehicle_17" type="DEFAULT_VEHTYPE" depart="189.0" route="route_2" departSpeed="5.00" /><vehicle id="vehicle_18" type="DEFAULT_VEHTYPE" depart="199.5" route="route_2" departSpeed="5.00" /><vehicle id="vehicle_19" type="DEFAULT_VEHTYPE" depart="210.0" route="route_2" departSpeed="5.00" /><vehicle id="vehicle_20" type="DEFAULT_VEHTYPE" depart="220.5" route="route_0" departSpeed="5.00" /><vehicle id="vehicle_21" type="DEFAULT_VEHTYPE" depart="231.0" route="route_2" departSpeed="5.00" /><vehicle id="vehicle_22" type="DEFAULT_VEHTYPE" depart="241.5" route="route_2" departSpeed="5.00" /><vehicle id="vehicle_23" type="DEFAULT_VEHTYPE" depart="252.0" route="route_2" departSpeed="5.00" /><vehicle id="vehicle_24" type="DEFAULT_VEHTYPE" depart="262.5" route="route_0" departSpeed="5.00" /><vehicle id="vehicle_25" type="DEFAULT_VEHTYPE" depart="273.0" route="route_2" departSpeed="5.00" /><vehicle id="vehicle_26" type="DEFAULT_VEHTYPE" depart="283.5" route="route_0" departSpeed="5.00" /><vehicle id="vehicle_27" type="DEFAULT_VEHTYPE" depart="294.0" route="route_0" departSpeed="5.00" /><vehicle id="vehicle_28" type="DEFAULT_VEHTYPE" depart="304.5" route="route_2" departSpeed="5.00" /><vehicle id="vehicle_29" type="DEFAULT_VEHTYPE" depart="315.0" route="route_2" departSpeed="5.00" /><vehicle id="vehicle_30" type="DEFAULT_VEHTYPE" depart="325.5" route="route_0" departSpeed="5.00" /><vehicle id="vehicle_31" type="DEFAULT_VEHTYPE" depart="336.0" route="route_2" departSpeed="5.00" /><vehicle id="vehicle_32" type="DEFAULT_VEHTYPE" depart="346.5" route="route_2" departSpeed="5.00" /><vehicle id="vehicle_33" type="DEFAULT_VEHTYPE" depart="357.0" route="route_2" departSpeed="5.00" /><vehicle id="vehicle_34" type="DEFAULT_VEHTYPE" depart="367.5" route="route_2" departSpeed="5.00" /><vehicle id="vehicle_35" type="DEFAULT_VEHTYPE" depart="378.0" route="route_2" departSpeed="5.00" /><vehicle id="vehicle_36" type="DEFAULT_VEHTYPE" depart="388.5" route="route_0" departSpeed="5.00" /><vehicle id="vehicle_37" type="DEFAULT_VEHTYPE" depart="399.0" route="route_2" departSpeed="5.00" /><vehicle id="vehicle_38" type="DEFAULT_VEHTYPE" depart="409.5" route="route_0" departSpeed="5.00" /><vehicle id="vehicle_39" type="DEFAULT_VEHTYPE" depart="420.0" route="route_0" departSpeed="5.00" /><vehicle id="vehicle_40" type="DEFAULT_VEHTYPE" depart="430.5" route="route_2" departSpeed="5.00" /><vehicle id="vehicle_41" type="DEFAULT_VEHTYPE" depart="441.0" route="route_0" departSpeed="5.00" /><vehicle id="vehicle_42" type="DEFAULT_VEHTYPE" depart="451.5" route="route_2" departSpeed="5.00" /><vehicle id="vehicle_43" type="DEFAULT_VEHTYPE" depart="462.0" route="route_0" departSpeed="5.00" /><vehicle id="vehicle_44" type="DEFAULT_VEHTYPE" depart="472.5" route="route_0" departSpeed="5.00" /><vehicle id="vehicle_45" type="DEFAULT_VEHTYPE" depart="483.0" route="route_0" departSpeed="5.00" /><vehicle id="vehicle_46" type="DEFAULT_VEHTYPE" depart="493.5" route="route_0" departSpeed="5.00" /><vehicle id="vehicle_47" type="DEFAULT_VEHTYPE" depart="504.0" route="route_2" departSpeed="5.00" /><vehicle id="vehicle_48" type="DEFAULT_VEHTYPE" depart="514.5" route="route_2" departSpeed="5.00" /><vehicle id="vehicle_49" type="DEFAULT_VEHTYPE" depart="525.0" route="route_0" departSpeed="5.00" /><vehicle id="vehicle_50" type="DEFAULT_VEHTYPE" depart="535.5" route="route_2" departSpeed="5.00" /><vehicle id="vehicle_51" type="DEFAULT_VEHTYPE" depart="546.0" route="route_0" departSpeed="5.00" /><vehicle id="vehicle_52" type="DEFAULT_VEHTYPE" depart="556.5" route="route_0" departSpeed="5.00" /><vehicle id="vehicle_53" type="DEFAULT_VEHTYPE" depart="567.0" route="route_0" departSpeed="5.00" /><vehicle id="vehicle_54" type="DEFAULT_VEHTYPE" depart="577.5" route="route_0" departSpeed="5.00" /><vehicle id="vehicle_55" type="DEFAULT_VEHTYPE" depart="588.0" route="route_2" departSpeed="5.00" /><vehicle id="vehicle_56" type="DEFAULT_VEHTYPE" depart="598.5" route="route_2" departSpeed="5.00" /><vehicle id="vehicle_57" type="DEFAULT_VEHTYPE" depart="609.0" route="route_2" departSpeed="5.00" /><vehicle id="vehicle_58" type="DEFAULT_VEHTYPE" depart="619.5" route="route_2" departSpeed="5.00" /><vehicle id="vehicle_59" type="DEFAULT_VEHTYPE" depart="630.0" route="route_0" departSpeed="5.00" /><vehicle id="vehicle_60" type="DEFAULT_VEHTYPE" depart="640.5" route="route_2" departSpeed="5.00" /><vehicle id="vehicle_61" type="DEFAULT_VEHTYPE" depart="651.0" route="route_2" departSpeed="5.00" /><vehicle id="vehicle_62" type="DEFAULT_VEHTYPE" depart="661.5" route="route_0" departSpeed="5.00" /><vehicle id="vehicle_63" type="DEFAULT_VEHTYPE" depart="672.0" route="route_2" departSpeed="5.00" /><vehicle id="vehicle_64" type="DEFAULT_VEHTYPE" depart="682.5" route="route_2" departSpeed="5.00" /><vehicle id="vehicle_65" type="DEFAULT_VEHTYPE" depart="693.0" route="route_2" departSpeed="5.00" /><vehicle id="vehicle_66" type="DEFAULT_VEHTYPE" depart="703.5" route="route_0" departSpeed="5.00" /><vehicle id="vehicle_67" type="DEFAULT_VEHTYPE" depart="714.0" route="route_2" departSpeed="5.00" /><vehicle id="vehicle_68" type="DEFAULT_VEHTYPE" depart="724.5" route="route_0" departSpeed="5.00" /><vehicle id="vehicle_69" type="DEFAULT_VEHTYPE" depart="735.0" route="route_0" departSpeed="5.00" /><vehicle id="vehicle_70" type="DEFAULT_VEHTYPE" depart="745.5" route="route_2" departSpeed="5.00" /><vehicle id="vehicle_71" type="DEFAULT_VEHTYPE" depart="756.0" route="route_2" departSpeed="5.00" /><vehicle id="vehicle_72" type="DEFAULT_VEHTYPE" depart="766.5" route="route_2" departSpeed="5.00" /><vehicle id="vehicle_73" type="DEFAULT_VEHTYPE" depart="777.0" route="route_2" departSpeed="5.00" /><vehicle id="vehicle_74" type="DEFAULT_VEHTYPE" depart="787.5" route="route_0" departSpeed="5.00" /><vehicle id="vehicle_75" type="DEFAULT_VEHTYPE" depart="798.0" route="route_2" departSpeed="5.00" /><vehicle id="vehicle_76" type="DEFAULT_VEHTYPE" depart="808.5" route="route_2" departSpeed="5.00" /><vehicle id="vehicle_77" type="DEFAULT_VEHTYPE" depart="819.0" route="route_0" departSpeed="5.00" /><vehicle id="vehicle_78" type="DEFAULT_VEHTYPE" depart="829.5" route="route_2" departSpeed="5.00" /><vehicle id="vehicle_79" type="DEFAULT_VEHTYPE" depart="840.0" route="route_0" departSpeed="5.00" /><vehicle id="vehicle_80" type="DEFAULT_VEHTYPE" depart="850.5" route="route_0" departSpeed="5.00" /><vehicle id="vehicle_81" type="DEFAULT_VEHTYPE" depart="861.0" route="route_0" departSpeed="5.00" /><vehicle id="vehicle_82" type="DEFAULT_VEHTYPE" depart="871.5" route="route_2" departSpeed="5.00" /><vehicle id="vehicle_83" type="DEFAULT_VEHTYPE" depart="882.0" route="route_0" departSpeed="5.00" /><vehicle id="vehicle_84" type="DEFAULT_VEHTYPE" depart="892.5" route="route_0" departSpeed="5.00" /><vehicle id="vehicle_85" type="DEFAULT_VEHTYPE" depart="903.0" route="route_0" departSpeed="5.00" /><vehicle id="vehicle_86" type="DEFAULT_VEHTYPE" depart="913.5" route="route_0" departSpeed="5.00" /><vehicle id="vehicle_87" type="DEFAULT_VEHTYPE" depart="924.0" route="route_2" departSpeed="5.00" /><vehicle id="vehicle_88" type="DEFAULT_VEHTYPE" depart="934.5" route="route_0" departSpeed="5.00" /><vehicle id="vehicle_89" type="DEFAULT_VEHTYPE" depart="945.0" route="route_2" departSpeed="5.00" /><vehicle id="vehicle_90" type="DEFAULT_VEHTYPE" depart="955.5" route="route_0" departSpeed="5.00" /><vehicle id="vehicle_91" type="DEFAULT_VEHTYPE" depart="966.0" route="route_0" departSpeed="5.00" /><vehicle id="vehicle_92" type="DEFAULT_VEHTYPE" depart="976.5" route="route_0" departSpeed="5.00" /><vehicle id="vehicle_93" type="DEFAULT_VEHTYPE" depart="987.0" route="route_2" departSpeed="5.00" /><vehicle id="vehicle_94" type="DEFAULT_VEHTYPE" depart="997.5" route="route_0" departSpeed="5.00" /><vehicle id="vehicle_95" type="DEFAULT_VEHTYPE" depart="1008.0" route="route_0" departSpeed="5.00" /><vehicle id="vehicle_96" type="DEFAULT_VEHTYPE" depart="1018.5" route="route_2" departSpeed="5.00" /><vehicle id="vehicle_97" type="DEFAULT_VEHTYPE" depart="1029.0" route="route_2" departSpeed="5.00" /><vehicle id="vehicle_98" type="DEFAULT_VEHTYPE" depart="1039.5" route="route_0" departSpeed="5.00" /><vehicle id="vehicle_99" type="DEFAULT_VEHTYPE" depart="1050.0" route="route_0" departSpeed="5.00" /><vehicle id="vehicle_100" type="DEFAULT_VEHTYPE" depart="1060.5" route="route_0" departSpeed="5.00" /><vehicle id="vehicle_101" type="DEFAULT_VEHTYPE" depart="1071.0" route="route_2" departSpeed="5.00" /><vehicle id="vehicle_102" type="DEFAULT_VEHTYPE" depart="1081.5" route="route_2" departSpeed="5.00" /><vehicle id="vehicle_103" type="DEFAULT_VEHTYPE" depart="1092.0" route="route_2" departSpeed="5.00" /><vehicle id="vehicle_104" type="DEFAULT_VEHTYPE" depart="1102.5" route="route_2" departSpeed="5.00" /><vehicle id="vehicle_105" type="DEFAULT_VEHTYPE" depart="1113.0" route="route_0" departSpeed="5.00" /><vehicle id="vehicle_106" type="DEFAULT_VEHTYPE" depart="1123.5" route="route_0" departSpeed="5.00" /><vehicle id="vehicle_107" type="DEFAULT_VEHTYPE" depart="1134.0" route="route_0" departSpeed="5.00" /><vehicle id="vehicle_108" type="DEFAULT_VEHTYPE" depart="1144.5" route="route_2" departSpeed="5.00" /><vehicle id="vehicle_109" type="DEFAULT_VEHTYPE" depart="1155.0" route="route_2" departSpeed="5.00" /><vehicle id="vehicle_110" type="DEFAULT_VEHTYPE" depart="1165.5" route="route_2" departSpeed="5.00" /><vehicle id="vehicle_111" type="DEFAULT_VEHTYPE" depart="1176.0" route="route_0" departSpeed="5.00" /><vehicle id="vehicle_112" type="DEFAULT_VEHTYPE" depart="1186.5" route="route_2" departSpeed="5.00" /><vehicle id="vehicle_113" type="DEFAULT_VEHTYPE" depart="1197.0" route="route_2" departSpeed="5.00" /><vehicle id="vehicle_114" type="DEFAULT_VEHTYPE" depart="1207.5" route="route_2" departSpeed="5.00" /><vehicle id="vehicle_115" type="DEFAULT_VEHTYPE" depart="1218.0" route="route_2" departSpeed="5.00" /><vehicle id="vehicle_116" type="DEFAULT_VEHTYPE" depart="1228.5" route="route_2" departSpeed="5.00" /><vehicle id="vehicle_117" type="DEFAULT_VEHTYPE" depart="1239.0" route="route_0" departSpeed="5.00" /><vehicle id="vehicle_118" type="DEFAULT_VEHTYPE" depart="1249.5" route="route_0" departSpeed="5.00" /><vehicle id="vehicle_119" type="DEFAULT_VEHTYPE" depart="1260.0" route="route_2" departSpeed="5.00" /><vehicle id="vehicle_120" type="DEFAULT_VEHTYPE" depart="1270.5" route="route_2" departSpeed="5.00" /><vehicle id="vehicle_121" type="DEFAULT_VEHTYPE" depart="1281.0" route="route_2" departSpeed="5.00" /><vehicle id="vehicle_122" type="DEFAULT_VEHTYPE" depart="1291.5" route="route_2" departSpeed="5.00" /><vehicle id="vehicle_123" type="DEFAULT_VEHTYPE" depart="1302.0" route="route_0" departSpeed="5.00" /><vehicle id="vehicle_124" type="DEFAULT_VEHTYPE" depart="1312.5" route="route_0" departSpeed="5.00" /><vehicle id="vehicle_125" type="DEFAULT_VEHTYPE" depart="1323.0" route="route_0" departSpeed="5.00" /><vehicle id="vehicle_126" type="DEFAULT_VEHTYPE" depart="1333.5" route="route_2" departSpeed="5.00" /><vehicle id="vehicle_127" type="DEFAULT_VEHTYPE" depart="1344.0" route="route_0" departSpeed="5.00" /><vehicle id="vehicle_128" type="DEFAULT_VEHTYPE" depart="1354.5" route="route_2" departSpeed="5.00" /><vehicle id="vehicle_129" type="DEFAULT_VEHTYPE" depart="1365.0" route="route_2" departSpeed="5.00" /><vehicle id="vehicle_130" type="DEFAULT_VEHTYPE" depart="1375.5" route="route_0" departSpeed="5.00" /><vehicle id="vehicle_131" type="DEFAULT_VEHTYPE" depart="1386.0" route="route_2" departSpeed="5.00" /><vehicle id="vehicle_132" type="DEFAULT_VEHTYPE" depart="1396.5" route="route_0" departSpeed="5.00" /><vehicle id="vehicle_133" type="DEFAULT_VEHTYPE" depart="1407.0" route="route_0" departSpeed="5.00" /><vehicle id="vehicle_134" type="DEFAULT_VEHTYPE" depart="1417.5" route="route_2" departSpeed="5.00" /><vehicle id="vehicle_135" type="DEFAULT_VEHTYPE" depart="1428.0" route="route_0" departSpeed="5.00" /><vehicle id="vehicle_136" type="DEFAULT_VEHTYPE" depart="1438.5" route="route_0" departSpeed="5.00" /><vehicle id="vehicle_137" type="DEFAULT_VEHTYPE" depart="1449.0" route="route_0" departSpeed="5.00" /><vehicle id="vehicle_138" type="DEFAULT_VEHTYPE" depart="1459.5" route="route_2" departSpeed="5.00" /><vehicle id="vehicle_139" type="DEFAULT_VEHTYPE" depart="1470.0" route="route_0" departSpeed="5.00" /><vehicle id="vehicle_140" type="DEFAULT_VEHTYPE" depart="1480.5" route="route_2" departSpeed="5.00" /><vehicle id="vehicle_141" type="DEFAULT_VEHTYPE" depart="1491.0" route="route_2" departSpeed="5.00" /><vehicle id="vehicle_142" type="DEFAULT_VEHTYPE" depart="1501.5" route="route_0" departSpeed="5.00" /><vehicle id="vehicle_143" type="DEFAULT_VEHTYPE" depart="1512.0" route="route_0" departSpeed="5.00" /><vehicle id="vehicle_144" type="DEFAULT_VEHTYPE" depart="1522.5" route="route_2" departSpeed="5.00" /><vehicle id="vehicle_145" type="DEFAULT_VEHTYPE" depart="1533.0" route="route_2" departSpeed="5.00" /><vehicle id="vehicle_146" type="DEFAULT_VEHTYPE" depart="1543.5" route="route_2" departSpeed="5.00" /><vehicle id="vehicle_147" type="DEFAULT_VEHTYPE" depart="1554.0" route="route_0" departSpeed="5.00" /><vehicle id="vehicle_148" type="DEFAULT_VEHTYPE" depart="1564.5" route="route_0" departSpeed="5.00" /><vehicle id="vehicle_149" type="DEFAULT_VEHTYPE" depart="1575.0" route="route_0" departSpeed="5.00" /><vehicle id="vehicle_150" type="DEFAULT_VEHTYPE" depart="1585.5" route="route_2" departSpeed="5.00" /><vehicle id="vehicle_151" type="DEFAULT_VEHTYPE" depart="1596.0" route="route_2" departSpeed="5.00" /><vehicle id="vehicle_152" type="DEFAULT_VEHTYPE" depart="1606.5" route="route_2" departSpeed="5.00" /><vehicle id="vehicle_153" type="DEFAULT_VEHTYPE" depart="1617.0" route="route_2" departSpeed="5.00" /><vehicle id="vehicle_154" type="DEFAULT_VEHTYPE" depart="1627.5" route="route_2" departSpeed="5.00" /><vehicle id="vehicle_155" type="DEFAULT_VEHTYPE" depart="1638.0" route="route_2" departSpeed="5.00" /><vehicle id="vehicle_156" type="DEFAULT_VEHTYPE" depart="1648.5" route="route_0" departSpeed="5.00" /><vehicle id="vehicle_157" type="DEFAULT_VEHTYPE" depart="1659.0" route="route_2" departSpeed="5.00" /><vehicle id="vehicle_158" type="DEFAULT_VEHTYPE" depart="1669.5" route="route_0" departSpeed="5.00" /><vehicle id="vehicle_159" type="DEFAULT_VEHTYPE" depart="1680.0" route="route_2" departSpeed="5.00" /><vehicle id="vehicle_160" type="DEFAULT_VEHTYPE" depart="1690.5" route="route_2" departSpeed="5.00" /><vehicle id="vehicle_161" type="DEFAULT_VEHTYPE" depart="1701.0" route="route_0" departSpeed="5.00" /><vehicle id="vehicle_162" type="DEFAULT_VEHTYPE" depart="1711.5" route="route_0" departSpeed="5.00" /><vehicle id="vehicle_163" type="DEFAULT_VEHTYPE" depart="1722.0" route="route_2" departSpeed="5.00" /><vehicle id="vehicle_164" type="DEFAULT_VEHTYPE" depart="1732.5" route="route_2" departSpeed="5.00" /><vehicle id="vehicle_165" type="DEFAULT_VEHTYPE" depart="1743.0" route="route_0" departSpeed="5.00" /><vehicle id="vehicle_166" type="DEFAULT_VEHTYPE" depart="1753.5" route="route_0" departSpeed="5.00" /><vehicle id="vehicle_167" type="DEFAULT_VEHTYPE" depart="1764.0" route="route_0" departSpeed="5.00" /><vehicle id="vehicle_168" type="DEFAULT_VEHTYPE" depart="1774.5" route="route_0" departSpeed="5.00" /><vehicle id="vehicle_169" type="DEFAULT_VEHTYPE" depart="1785.0" route="route_0" departSpeed="5.00" /><vehicle id="vehicle_170" type="DEFAULT_VEHTYPE" depart="1795.5" route="route_0" departSpeed="5.00" /><vehicle id="vehicle_171" type="DEFAULT_VEHTYPE" depart="1806.0" route="route_0" departSpeed="5.00" /><vehicle id="vehicle_172" type="DEFAULT_VEHTYPE" depart="1816.5" route="route_2" departSpeed="5.00" /><vehicle id="vehicle_173" type="DEFAULT_VEHTYPE" depart="1827.0" route="route_2" departSpeed="5.00" /><vehicle id="vehicle_174" type="DEFAULT_VEHTYPE" depart="1837.5" route="route_2" departSpeed="5.00" /><vehicle id="vehicle_175" type="DEFAULT_VEHTYPE" depart="1848.0" route="route_2" departSpeed="5.00" /><vehicle id="vehicle_176" type="DEFAULT_VEHTYPE" depart="1858.5" route="route_2" departSpeed="5.00" /><vehicle id="vehicle_177" type="DEFAULT_VEHTYPE" depart="1869.0" route="route_0" departSpeed="5.00" /><vehicle id="vehicle_178" type="DEFAULT_VEHTYPE" depart="1879.5" route="route_0" departSpeed="5.00" /><vehicle id="vehicle_179" type="DEFAULT_VEHTYPE" depart="1890.0" route="route_2" departSpeed="5.00" /><vehicle id="vehicle_180" type="DEFAULT_VEHTYPE" depart="1900.5" route="route_0" departSpeed="5.00" /><vehicle id="vehicle_181" type="DEFAULT_VEHTYPE" depart="1911.0" route="route_2" departSpeed="5.00" /><vehicle id="vehicle_182" type="DEFAULT_VEHTYPE" depart="1921.5" route="route_0" departSpeed="5.00" /><vehicle id="vehicle_183" type="DEFAULT_VEHTYPE" depart="1932.0" route="route_0" departSpeed="5.00" /><vehicle id="vehicle_184" type="DEFAULT_VEHTYPE" depart="1942.5" route="route_2" departSpeed="5.00" /><vehicle id="vehicle_185" type="DEFAULT_VEHTYPE" depart="1953.0" route="route_2" departSpeed="5.00" /><vehicle id="vehicle_186" type="DEFAULT_VEHTYPE" depart="1963.5" route="route_0" departSpeed="5.00" /><vehicle id="vehicle_187" type="DEFAULT_VEHTYPE" depart="1974.0" route="route_0" departSpeed="5.00" /><vehicle id="vehicle_188" type="DEFAULT_VEHTYPE" depart="1984.5" route="route_0" departSpeed="5.00" /><vehicle id="vehicle_189" type="DEFAULT_VEHTYPE" depart="1995.0" route="route_2" departSpeed="5.00" /><vehicle id="vehicle_190" type="DEFAULT_VEHTYPE" depart="2005.5" route="route_0" departSpeed="5.00" /><vehicle id="vehicle_191" type="DEFAULT_VEHTYPE" depart="2016.0" route="route_0" departSpeed="5.00" /><vehicle id="vehicle_192" type="DEFAULT_VEHTYPE" depart="2026.5" route="route_2" departSpeed="5.00" /><vehicle id="vehicle_193" type="DEFAULT_VEHTYPE" depart="2037.0" route="route_2" departSpeed="5.00" /><vehicle id="vehicle_194" type="DEFAULT_VEHTYPE" depart="2047.5" route="route_0" departSpeed="5.00" /><vehicle id="vehicle_195" type="DEFAULT_VEHTYPE" depart="2058.0" route="route_2" departSpeed="5.00" /><vehicle id="vehicle_196" type="DEFAULT_VEHTYPE" depart="2068.5" route="route_2" departSpeed="5.00" /><vehicle id="vehicle_197" type="DEFAULT_VEHTYPE" depart="2079.0" route="route_2" departSpeed="5.00" /><vehicle id="vehicle_198" type="DEFAULT_VEHTYPE" depart="2089.5" route="route_0" departSpeed="5.00" /><vehicle id="vehicle_199" type="DEFAULT_VEHTYPE" depart="2100.0" route="route_0" departSpeed="5.00" /><vehicle id="vehicle_200" type="DEFAULT_VEHTYPE" depart="2110.5" route="route_0" departSpeed="5.00" /><vehicle id="vehicle_201" type="DEFAULT_VEHTYPE" depart="2121.0" route="route_2" departSpeed="5.00" /><vehicle id="vehicle_202" type="DEFAULT_VEHTYPE" depart="2131.5" route="route_0" departSpeed="5.00" /><vehicle id="vehicle_203" type="DEFAULT_VEHTYPE" depart="2142.0" route="route_0" departSpeed="5.00" /><vehicle id="vehicle_204" type="DEFAULT_VEHTYPE" depart="2152.5" route="route_0" departSpeed="5.00" /><vehicle id="vehicle_205" type="DEFAULT_VEHTYPE" depart="2163.0" route="route_2" departSpeed="5.00" /><vehicle id="vehicle_206" type="DEFAULT_VEHTYPE" depart="2173.5" route="route_2" departSpeed="5.00" /><vehicle id="vehicle_207" type="DEFAULT_VEHTYPE" depart="2184.0" route="route_0" departSpeed="5.00" /><vehicle id="vehicle_208" type="DEFAULT_VEHTYPE" depart="2194.5" route="route_0" departSpeed="5.00" /><vehicle id="vehicle_209" type="DEFAULT_VEHTYPE" depart="2205.0" route="route_0" departSpeed="5.00" /><vehicle id="vehicle_210" type="DEFAULT_VEHTYPE" depart="2215.5" route="route_0" departSpeed="5.00" /><vehicle id="vehicle_211" type="DEFAULT_VEHTYPE" depart="2226.0" route="route_0" departSpeed="5.00" /><vehicle id="vehicle_212" type="DEFAULT_VEHTYPE" depart="2236.5" route="route_0" departSpeed="5.00" /><vehicle id="vehicle_213" type="DEFAULT_VEHTYPE" depart="2247.0" route="route_2" departSpeed="5.00" /><vehicle id="vehicle_214" type="DEFAULT_VEHTYPE" depart="2257.5" route="route_2" departSpeed="5.00" /><vehicle id="vehicle_215" type="DEFAULT_VEHTYPE" depart="2268.0" route="route_0" departSpeed="5.00" /><vehicle id="vehicle_216" type="DEFAULT_VEHTYPE" depart="2278.5" route="route_2" departSpeed="5.00" /><vehicle id="vehicle_217" type="DEFAULT_VEHTYPE" depart="2289.0" route="route_0" departSpeed="5.00" /><vehicle id="vehicle_218" type="DEFAULT_VEHTYPE" depart="2299.5" route="route_2" departSpeed="5.00" /><vehicle id="vehicle_219" type="DEFAULT_VEHTYPE" depart="2310.0" route="route_0" departSpeed="5.00" /><vehicle id="vehicle_220" type="DEFAULT_VEHTYPE" depart="2320.5" route="route_2" departSpeed="5.00" /><vehicle id="vehicle_221" type="DEFAULT_VEHTYPE" depart="2331.0" route="route_2" departSpeed="5.00" /><vehicle id="vehicle_222" type="DEFAULT_VEHTYPE" depart="2341.5" route="route_0" departSpeed="5.00" /><vehicle id="vehicle_223" type="DEFAULT_VEHTYPE" depart="2352.0" route="route_2" departSpeed="5.00" /><vehicle id="vehicle_224" type="DEFAULT_VEHTYPE" depart="2362.5" route="route_2" departSpeed="5.00" /><vehicle id="vehicle_225" type="DEFAULT_VEHTYPE" depart="2373.0" route="route_0" departSpeed="5.00" /><vehicle id="vehicle_226" type="DEFAULT_VEHTYPE" depart="2383.5" route="route_2" departSpeed="5.00" /><vehicle id="vehicle_227" type="DEFAULT_VEHTYPE" depart="2394.0" route="route_0" departSpeed="5.00" /><vehicle id="vehicle_228" type="DEFAULT_VEHTYPE" depart="2404.5" route="route_0" departSpeed="5.00" /><vehicle id="vehicle_229" type="DEFAULT_VEHTYPE" depart="2415.0" route="route_2" departSpeed="5.00" /><vehicle id="vehicle_230" type="DEFAULT_VEHTYPE" depart="2425.5" route="route_0" departSpeed="5.00" /><vehicle id="vehicle_231" type="DEFAULT_VEHTYPE" depart="2436.0" route="route_0" departSpeed="5.00" /><vehicle id="vehicle_232" type="DEFAULT_VEHTYPE" depart="2446.5" route="route_0" departSpeed="5.00" /><vehicle id="vehicle_233" type="DEFAULT_VEHTYPE" depart="2457.0" route="route_2" departSpeed="5.00" /><vehicle id="vehicle_234" type="DEFAULT_VEHTYPE" depart="2467.5" route="route_2" departSpeed="5.00" /><vehicle id="vehicle_235" type="DEFAULT_VEHTYPE" depart="2478.0" route="route_2" departSpeed="5.00" /><vehicle id="vehicle_236" type="DEFAULT_VEHTYPE" depart="2488.5" route="route_0" departSpeed="5.00" /><vehicle id="vehicle_237" type="DEFAULT_VEHTYPE" depart="2499.0" route="route_2" departSpeed="5.00" /><vehicle id="vehicle_238" type="DEFAULT_VEHTYPE" depart="2509.5" route="route_2" departSpeed="5.00" /><vehicle id="vehicle_239" type="DEFAULT_VEHTYPE" depart="2520.0" route="route_2" departSpeed="5.00" /><vehicle id="vehicle_240" type="DEFAULT_VEHTYPE" depart="2530.5" route="route_0" departSpeed="5.00" /><vehicle id="vehicle_241" type="DEFAULT_VEHTYPE" depart="2541.0" route="route_2" departSpeed="5.00" /><vehicle id="vehicle_242" type="DEFAULT_VEHTYPE" depart="2551.5" route="route_0" departSpeed="5.00" /><vehicle id="vehicle_243" type="DEFAULT_VEHTYPE" depart="2562.0" route="route_2" departSpeed="5.00" /><vehicle id="vehicle_244" type="DEFAULT_VEHTYPE" depart="2572.5" route="route_0" departSpeed="5.00" /><vehicle id="vehicle_245" type="DEFAULT_VEHTYPE" depart="2583.0" route="route_2" departSpeed="5.00" /><vehicle id="vehicle_246" type="DEFAULT_VEHTYPE" depart="2593.5" route="route_0" departSpeed="5.00" /><vehicle id="vehicle_247" type="DEFAULT_VEHTYPE" depart="2604.0" route="route_0" departSpeed="5.00" /><vehicle id="vehicle_248" type="DEFAULT_VEHTYPE" depart="2614.5" route="route_0" departSpeed="5.00" /><vehicle id="vehicle_249" type="DEFAULT_VEHTYPE" depart="2625.0" route="route_0" departSpeed="5.00" /><vehicle id="vehicle_250" type="DEFAULT_VEHTYPE" depart="2635.5" route="route_0" departSpeed="5.00" /><vehicle id="vehicle_251" type="DEFAULT_VEHTYPE" depart="2646.0" route="route_0" departSpeed="5.00" /><vehicle id="vehicle_252" type="DEFAULT_VEHTYPE" depart="2656.5" route="route_2" departSpeed="5.00" /><vehicle id="vehicle_253" type="DEFAULT_VEHTYPE" depart="2667.0" route="route_0" departSpeed="5.00" /><vehicle id="vehicle_254" type="DEFAULT_VEHTYPE" depart="2677.5" route="route_2" departSpeed="5.00" /><vehicle id="vehicle_255" type="DEFAULT_VEHTYPE" depart="2688.0" route="route_0" departSpeed="5.00" /><vehicle id="vehicle_256" type="DEFAULT_VEHTYPE" depart="2698.5" route="route_2" departSpeed="5.00" /><vehicle id="vehicle_257" type="DEFAULT_VEHTYPE" depart="2709.0" route="route_2" departSpeed="5.00" /><vehicle id="vehicle_258" type="DEFAULT_VEHTYPE" depart="2719.5" route="route_2" departSpeed="5.00" /><vehicle id="vehicle_259" type="DEFAULT_VEHTYPE" depart="2730.0" route="route_2" departSpeed="5.00" /><vehicle id="vehicle_260" type="DEFAULT_VEHTYPE" depart="2740.5" route="route_0" departSpeed="5.00" /><vehicle id="vehicle_261" type="DEFAULT_VEHTYPE" depart="2751.0" route="route_2" departSpeed="5.00" /><vehicle id="vehicle_262" type="DEFAULT_VEHTYPE" depart="2761.5" route="route_0" departSpeed="5.00" /><vehicle id="vehicle_263" type="DEFAULT_VEHTYPE" depart="2772.0" route="route_2" departSpeed="5.00" /><vehicle id="vehicle_264" type="DEFAULT_VEHTYPE" depart="2782.5" route="route_2" departSpeed="5.00" /><vehicle id="vehicle_265" type="DEFAULT_VEHTYPE" depart="2793.0" route="route_0" departSpeed="5.00" /><vehicle id="vehicle_266" type="DEFAULT_VEHTYPE" depart="2803.5" route="route_0" departSpeed="5.00" /><vehicle id="vehicle_267" type="DEFAULT_VEHTYPE" depart="2814.0" route="route_2" departSpeed="5.00" /><vehicle id="vehicle_268" type="DEFAULT_VEHTYPE" depart="2824.5" route="route_0" departSpeed="5.00" /><vehicle id="vehicle_269" type="DEFAULT_VEHTYPE" depart="2835.0" route="route_0" departSpeed="5.00" /><vehicle id="vehicle_270" type="DEFAULT_VEHTYPE" depart="2845.5" route="route_0" departSpeed="5.00" /><vehicle id="vehicle_271" type="DEFAULT_VEHTYPE" depart="2856.0" route="route_0" departSpeed="5.00" /><vehicle id="vehicle_272" type="DEFAULT_VEHTYPE" depart="2866.5" route="route_0" departSpeed="5.00" /><vehicle id="vehicle_273" type="DEFAULT_VEHTYPE" depart="2877.0" route="route_2" departSpeed="5.00" /><vehicle id="vehicle_274" type="DEFAULT_VEHTYPE" depart="2887.5" route="route_0" departSpeed="5.00" /><vehicle id="vehicle_275" type="DEFAULT_VEHTYPE" depart="2898.0" route="route_2" departSpeed="5.00" /><vehicle id="vehicle_276" type="DEFAULT_VEHTYPE" depart="2908.5" route="route_2" departSpeed="5.00" /><vehicle id="vehicle_277" type="DEFAULT_VEHTYPE" depart="2919.0" route="route_0" departSpeed="5.00" /><vehicle id="vehicle_278" type="DEFAULT_VEHTYPE" depart="2929.5" route="route_2" departSpeed="5.00" /><vehicle id="vehicle_279" type="DEFAULT_VEHTYPE" depart="2940.0" route="route_0" departSpeed="5.00" /><vehicle id="vehicle_280" type="DEFAULT_VEHTYPE" depart="2950.5" route="route_2" departSpeed="5.00" /><vehicle id="vehicle_281" type="DEFAULT_VEHTYPE" depart="2961.0" route="route_0" departSpeed="5.00" /><vehicle id="vehicle_282" type="DEFAULT_VEHTYPE" depart="2971.5" route="route_0" departSpeed="5.00" /><vehicle id="vehicle_283" type="DEFAULT_VEHTYPE" depart="2982.0" route="route_2" departSpeed="5.00" /><vehicle id="vehicle_284" type="DEFAULT_VEHTYPE" depart="2992.5" route="route_0" departSpeed="5.00" /><vehicle id="vehicle_285" type="DEFAULT_VEHTYPE" depart="3003.0" route="route_2" departSpeed="5.00" /><vehicle id="vehicle_286" type="DEFAULT_VEHTYPE" depart="3013.5" route="route_0" departSpeed="5.00" /><vehicle id="vehicle_287" type="DEFAULT_VEHTYPE" depart="3024.0" route="route_2" departSpeed="5.00" /><vehicle id="vehicle_288" type="DEFAULT_VEHTYPE" depart="3034.5" route="route_2" departSpeed="5.00" /><vehicle id="vehicle_289" type="DEFAULT_VEHTYPE" depart="3045.0" route="route_2" departSpeed="5.00" /><vehicle id="vehicle_290" type="DEFAULT_VEHTYPE" depart="3055.5" route="route_2" departSpeed="5.00" /><vehicle id="vehicle_291" type="DEFAULT_VEHTYPE" depart="3066.0" route="route_2" departSpeed="5.00" /><vehicle id="vehicle_292" type="DEFAULT_VEHTYPE" depart="3076.5" route="route_2" departSpeed="5.00" /><vehicle id="vehicle_293" type="DEFAULT_VEHTYPE" depart="3087.0" route="route_0" departSpeed="5.00" /><vehicle id="vehicle_294" type="DEFAULT_VEHTYPE" depart="3097.5" route="route_2" departSpeed="5.