<routes>
    <route id="route_0" edges="-319929498#3 -319929498#2" />
    <route id="route_2" edges="-319929498#3 32038440#11" />
    <vehicle id="vehicle_0" type="DEFAULT_VEHTYPE" depart="0.00" route="route_0" />
<vehicle id="vehicle_1" type="DEFAULT_VEHTYPE" depart="1.23" route="route_0" /><vehicle id="vehicle_2" type="DEFAULT_VEHTYPE" depart="2.46" route="route_0" /><vehicle id="vehicle_3" type="DEFAULT_VEHTYPE" depart="3.69" route="route_2" /><vehicle id="vehicle_4" type="DEFAULT_VEHTYPE" depart="4.92" route="route_0" /><vehicle id="vehicle_5" type="DEFAULT_VEHTYPE" depart="6.15" route="route_2" /><vehicle id="vehicle_6" type="DEFAULT_VEHTYPE" depart="7.380000000000001" route="route_2" /><vehicle id="vehicle_7" type="DEFAULT_VEHTYPE" depart="8.610000000000001" route="route_0" /><vehicle id="vehicle_8" type="DEFAULT_VEHTYPE" depart="9.840000000000002" route="route_0" /><vehicle id="vehicle_9" type="DEFAULT_VEHTYPE" depart="11.070000000000002" route="route_2" /><vehicle id="vehicle_10" type="DEFAULT_VEHTYPE" depart="12.300000000000002" route="route_0" /><vehicle id="vehicle_11" type="DEFAULT_VEHTYPE" depart="13.530000000000003" route="route_0" /><vehicle id="vehicle_12" type="DEFAULT_VEHTYPE" depart="14.760000000000003" route="route_2" /><vehicle id="vehicle_13" type="DEFAULT_VEHTYPE" depart="15.990000000000004" route="route_0" /><vehicle id="vehicle_14" type="DEFAULT_VEHTYPE" depart="17.220000000000002" route="route_2" /><vehicle id="vehicle_15" type="DEFAULT_VEHTYPE" depart="18.450000000000003" route="route_0" /><vehicle id="vehicle_16" type="DEFAULT_VEHTYPE" depart="19.680000000000003" route="route_2" /><vehicle id="vehicle_17" type="DEFAULT_VEHTYPE" depart="20.910000000000004" route="route_2" /><vehicle id="vehicle_18" type="DEFAULT_VEHTYPE" depart="22.140000000000004" route="route_0" /><vehicle id="vehicle_19" type="DEFAULT_VEHTYPE" depart="23.370000000000005" route="route_2" /><vehicle id="vehicle_20" type="DEFAULT_VEHTYPE" depart="24.600000000000005" route="route_0" /><vehicle id="vehicle_21" type="DEFAULT_VEHTYPE" depart="25.830000000000005" route="route_0" /><vehicle id="vehicle_22" type="DEFAULT_VEHTYPE" depart="27.060000000000006" route="route_2" /><vehicle id="vehicle_23" type="DEFAULT_VEHTYPE" depart="28.290000000000006" route="route_0" /><vehicle id="vehicle_24" type="DEFAULT_VEHTYPE" depart="29.520000000000007" route="route_2" /><vehicle id="vehicle_25" type="DEFAULT_VEHTYPE" depart="30.750000000000007" route="route_0" /><vehicle id="vehicle_26" type="DEFAULT_VEHTYPE" depart="31.980000000000008" route="route_0" /><vehicle id="vehicle_27" type="DEFAULT_VEHTYPE" depart="33.21000000000001" route="route_0" /><vehicle id="vehicle_28" type="DEFAULT_VEHTYPE" depart="34.440000000000005" route="route_0" /><vehicle id="vehicle_29" type="DEFAULT_VEHTYPE" depart="35.67" route="route_0" /><vehicle id="vehicle_30" type="DEFAULT_VEHTYPE" depart="36.9" route="route_0" /><vehicle id="vehicle_31" type="DEFAULT_VEHTYPE" depart="38.129999999999995" route="route_2" /><vehicle id="vehicle_32" type="DEFAULT_VEHTYPE" depart="39.35999999999999" route="route_2" /><vehicle id="vehicle_33" type="DEFAULT_VEHTYPE" depart="40.58999999999999" route="route_2" /><vehicle id="vehicle_34" type="DEFAULT_VEHTYPE" depart="41.819999999999986" route="route_2" /><vehicle id="vehicle_35" type="DEFAULT_VEHTYPE" depart="43.04999999999998" route="route_0" /><vehicle id="vehicle_36" type="DEFAULT_VEHTYPE" depart="44.27999999999998" route="route_0" /><vehicle id="vehicle_37" type="DEFAULT_VEHTYPE" depart="45.50999999999998" route="route_0" /><vehicle id="vehicle_38" type="DEFAULT_VEHTYPE" depart="46.739999999999974" route="route_2" /><vehicle id="vehicle_39" type="DEFAULT_VEHTYPE" depart="47.96999999999997" route="route_2" /><vehicle id="vehicle_40" type="DEFAULT_VEHTYPE" depart="49.19999999999997" route="route_0" /><vehicle id="vehicle_41" type="DEFAULT_VEHTYPE" depart="50.429999999999964" route="route_2" /><vehicle id="vehicle_42" type="DEFAULT_VEHTYPE" depart="51.65999999999996" route="route_2" /><vehicle id="vehicle_43" type="DEFAULT_VEHTYPE" depart="52.88999999999996" route="route_2" /><vehicle id="vehicle_44" type="DEFAULT_VEHTYPE" depart="54.119999999999955" route="route_2" /><vehicle id="vehicle_45" type="DEFAULT_VEHTYPE" depart="55.34999999999995" route="route_2" /><vehicle id="vehicle_46" type="DEFAULT_VEHTYPE" depart="56.57999999999995" route="route_2" /><vehicle id="vehicle_47" type="DEFAULT_VEHTYPE" depart="57.809999999999945" route="route_2" /><vehicle id="vehicle_48" type="DEFAULT_VEHTYPE" depart="59.03999999999994" route="route_2" /><vehicle id="vehicle_49" type="DEFAULT_VEHTYPE" depart="60.26999999999994" route="route_2" /><vehicle id="vehicle_50" type="DEFAULT_VEHTYPE" depart="61.499999999999936" route="route_2" /><vehicle id="vehicle_51" type="DEFAULT_VEHTYPE" depart="62.72999999999993" route="route_2" /><vehicle id="vehicle_52" type="DEFAULT_VEHTYPE" depart="63.95999999999993" route="route_0" /><vehicle id="vehicle_53" type="DEFAULT_VEHTYPE" depart="65.18999999999993" route="route_0" /><vehicle id="vehicle_54" type="DEFAULT_VEHTYPE" depart="66.41999999999993" route="route_2" /><vehicle id="vehicle_55" type="DEFAULT_VEHTYPE" depart="67.64999999999993" route="route_2" /><vehicle id="vehicle_56" type="DEFAULT_VEHTYPE" depart="68.87999999999994" route="route_2" /><vehicle id="vehicle_57" type="DEFAULT_VEHTYPE" depart="70.10999999999994" route="route_0" /><vehicle id="vehicle_58" type="DEFAULT_VEHTYPE" depart="71.33999999999995" route="route_0" /><vehicle id="vehicle_59" type="DEFAULT_VEHTYPE" depart="72.56999999999995" route="route_0" /><vehicle id="vehicle_60" type="DEFAULT_VEHTYPE" depart="73.79999999999995" route="route_2" /><vehicle id="vehicle_61" type="DEFAULT_VEHTYPE" depart="75.02999999999996" route="route_0" /><vehicle id="vehicle_62" type="DEFAULT_VEHTYPE" depart="76.25999999999996" route="route_0" /><vehicle id="vehicle_63" type="DEFAULT_VEHTYPE" depart="77.48999999999997" route="route_0" /><vehicle id="vehicle_64" type="DEFAULT_VEHTYPE" depart="78.71999999999997" route="route_0" /><vehicle id="vehicle_65" type="DEFAULT_VEHTYPE" depart="79.94999999999997" route="route_2" /><vehicle id="vehicle_66" type="DEFAULT_VEHTYPE" depart="81.17999999999998" route="route_2" /><vehicle id="vehicle_67" type="DEFAULT_VEHTYPE" depart="82.40999999999998" route="route_2" /><vehicle id="vehicle_68" type="DEFAULT_VEHTYPE" depart="83.63999999999999" route="route_0" /><vehicle id="vehicle_69" type="DEFAULT_VEHTYPE" depart="84.86999999999999" route="route_2" /><vehicle id="vehicle_70" type="DEFAULT_VEHTYPE" depart="86.1" route="route_0" /><vehicle id="vehicle_71" type="DEFAULT_VEHTYPE" depart="87.33" route="route_0" /><vehicle id="vehicle_72" type="DEFAULT_VEHTYPE" depart="88.56" route="route_0" /><vehicle id="vehicle_73" type="DEFAULT_VEHTYPE" depart="89.79" route="route_2" /><vehicle id="vehicle_74" type="DEFAULT_VEHTYPE" depart="91.02000000000001" route="route_2" /><vehicle id="vehicle_75" type="DEFAULT_VEHTYPE" depart="92.25000000000001" route="route_0" /><vehicle id="vehicle_76" type="DEFAULT_VEHTYPE" depart="93.48000000000002" route="route_0" /><vehicle id="vehicle_77" type="DEFAULT_VEHTYPE" depart="94.71000000000002" route="route_0" /><vehicle id="vehicle_78" type="DEFAULT_VEHTYPE" depart="95.94000000000003" route="route_2" /><vehicle id="vehicle_79" type="DEFAULT_VEHTYPE" depart="97.17000000000003" route="route_2" /><vehicle id="vehicle_80" type="DEFAULT_VEHTYPE" depart="98.40000000000003" route="route_0" /><vehicle id="vehicle_81" type="DEFAULT_VEHTYPE" depart="99.63000000000004" route="route_0" /><vehicle id="vehicle_82" type="DEFAULT_VEHTYPE" depart="100.86000000000004" route="route_0" /><vehicle id="vehicle_83" type="DEFAULT_VEHTYPE" depart="102.09000000000005" route="route_0" /><vehicle id="vehicle_84" type="DEFAULT_VEHTYPE" depart="103.32000000000005" route="route_2" /><vehicle id="vehicle_85" type="DEFAULT_VEHTYPE" depart="104.55000000000005" route="route_2" /><vehicle id="vehicle_86" type="DEFAULT_VEHTYPE" depart="105.78000000000006" route="route_2" /><vehicle id="vehicle_87" type="DEFAULT_VEHTYPE" depart="107.01000000000006" route="route_2" /><vehicle id="vehicle_88" type="DEFAULT_VEHTYPE" depart="108.24000000000007" route="route_0" /><vehicle id="vehicle_89" type="DEFAULT_VEHTYPE" depart="109.47000000000007" route="route_2" /><vehicle id="vehicle_90" type="DEFAULT_VEHTYPE" depart="110.70000000000007" route="route_2" /><vehicle id="vehicle_91" type="DEFAULT_VEHTYPE" depart="111.93000000000008" route="route_2" /><vehicle id="vehicle_92" type="DEFAULT_VEHTYPE" depart="113.16000000000008" route="route_2" /><vehicle id="vehicle_93" type="DEFAULT_VEHTYPE" depart="114.39000000000009" route="route_2" /><vehicle id="vehicle_94" type="DEFAULT_VEHTYPE" depart="115.62000000000009" route="route_2" /><vehicle id="vehicle_95" type="DEFAULT_VEHTYPE" depart="116.8500000000001" route="route_2" /><vehicle id="vehicle_96" type="DEFAULT_VEHTYPE" depart="118.0800000000001" route="route_0" /><vehicle id="vehicle_97" type="DEFAULT_VEHTYPE" depart="119.3100000000001" route="route_0" /><vehicle id="vehicle_98" type="DEFAULT_VEHTYPE" depart="120.5400000000001" route="route_0" /><vehicle id="vehicle_99" type="DEFAULT_VEHTYPE" depart="121.77000000000011" route="route_0" /><vehicle id="vehicle_100" type="DEFAULT_VEHTYPE" depart="123.00000000000011" route="route_0" /><vehicle id="vehicle_101" type="DEFAULT_VEHTYPE" depart="124.23000000000012" route="route_0" /><vehicle id="vehicle_102" type="DEFAULT_VEHTYPE" depart="125.46000000000012" route="route_0" /><vehicle id="vehicle_103" type="DEFAULT_VEHTYPE" depart="126.69000000000013" route="route_0" /><vehicle id="vehicle_104" type="DEFAULT_VEHTYPE" depart="127.92000000000013" route="route_2" /><vehicle id="vehicle_105" type="DEFAULT_VEHTYPE" depart="129.15000000000012" route="route_2" /><vehicle id="vehicle_106" type="DEFAULT_VEHTYPE" depart="130.3800000000001" route="route_0" /><vehicle id="vehicle_107" type="DEFAULT_VEHTYPE" depart="131.6100000000001" route="route_2" /><vehicle id="vehicle_108" type="DEFAULT_VEHTYPE" depart="132.8400000000001" route="route_2" /><vehicle id="vehicle_109" type="DEFAULT_VEHTYPE" depart="134.07000000000008" route="route_0" /><vehicle id="vehicle_110" type="DEFAULT_VEHTYPE" depart="135.30000000000007" route="route_0" /><vehicle id="vehicle_111" type="DEFAULT_VEHTYPE" depart="136.53000000000006" route="route_0" /><vehicle id="vehicle_112" type="DEFAULT_VEHTYPE" depart="137.76000000000005" route="route_2" /><vehicle id="vehicle_113" type="DEFAULT_VEHTYPE" depart="138.99000000000004" route="route_2" /><vehicle id="vehicle_114" type="DEFAULT_VEHTYPE" depart="140.22000000000003" route="route_2" /><vehicle id="vehicle_115" type="DEFAULT_VEHTYPE" depart="141.45000000000002" route="route_2" /><vehicle id="vehicle_116" type="DEFAULT_VEHTYPE" depart="142.68" route="route_2" /><vehicle id="vehicle_117" type="DEFAULT_VEHTYPE" depart="143.91" route="route_0" /><vehicle id="vehicle_118" type="DEFAULT_VEHTYPE" depart="145.14" route="route_0" /><vehicle id="vehicle_119" type="DEFAULT_VEHTYPE" depart="146.36999999999998" route="route_2" /><vehicle id="vehicle_120" type="DEFAULT_VEHTYPE" depart="147.59999999999997" route="route_0" /><vehicle id="vehicle_121" type="DEFAULT_VEHTYPE" depart="148.82999999999996" route="route_0" /><vehicle id="vehicle_122" type="DEFAULT_VEHTYPE" depart="150.05999999999995" route="route_2" /><vehicle id="vehicle_123" type="DEFAULT_VEHTYPE" depart="151.28999999999994" route="route_2" /><vehicle id="vehicle_124" type="DEFAULT_VEHTYPE" depart="152.51999999999992" route="route_0" /><vehicle id="vehicle_125" type="DEFAULT_VEHTYPE" depart="153.74999999999991" route="route_0" /><vehicle id="vehicle_126" type="DEFAULT_VEHTYPE" depart="154.9799999999999" route="route_0" /><vehicle id="vehicle_127" type="DEFAULT_VEHTYPE" depart="156.2099999999999" route="route_2" /><vehicle id="vehicle_128" type="DEFAULT_VEHTYPE" depart="157.43999999999988" route="route_0" /><vehicle id="vehicle_129" type="DEFAULT_VEHTYPE" depart="158.66999999999987" route="route_0" /><vehicle id="vehicle_130" type="DEFAULT_VEHTYPE" depart="159.89999999999986" route="route_2" /><vehicle id="vehicle_131" type="DEFAULT_VEHTYPE" depart="161.12999999999985" route="route_2" /><vehicle id="vehicle_132" type="DEFAULT_VEHTYPE" depart="162.35999999999984" route="route_2" /><vehicle id="vehicle_133" type="DEFAULT_VEHTYPE" depart="163.58999999999983" route="route_0" /><vehicle id="vehicle_134" type="DEFAULT_VEHTYPE" depart="164.81999999999982" route="route_0" /><vehicle id="vehicle_135" type="DEFAULT_VEHTYPE" depart="166.0499999999998" route="route_2" /><vehicle id="vehicle_136" type="DEFAULT_VEHTYPE" depart="167.2799999999998" route="route_0" /><vehicle id="vehicle_137" type="DEFAULT_VEHTYPE" depart="168.5099999999998" route="route_0" /><vehicle id="vehicle_138" type="DEFAULT_VEHTYPE" depart="169.73999999999978" route="route_0" /><vehicle id="vehicle_139" type="DEFAULT_VEHTYPE" depart="170.96999999999977" route="route_0" /><vehicle id="vehicle_140" type="DEFAULT_VEHTYPE" depart="172.19999999999976" route="route_0" /><vehicle id="vehicle_141" type="DEFAULT_VEHTYPE" depart="173.42999999999975" route="route_2" /><vehicle id="vehicle_142" type="DEFAULT_VEHTYPE" depart="174.65999999999974" route="route_2" /><vehicle id="vehicle_143" type="DEFAULT_VEHTYPE" depart="175.88999999999973" route="route_2" /><vehicle id="vehicle_144" type="DEFAULT_VEHTYPE" depart="177.11999999999972" route="route_2" /><vehicle id="vehicle_145" type="DEFAULT_VEHTYPE" depart="178.3499999999997" route="route_2" /><vehicle id="vehicle_146" type="DEFAULT_VEHTYPE" depart="179.5799999999997" route="route_2" /><vehicle id="vehicle_147" type="DEFAULT_VEHTYPE" depart="180.8099999999997" route="route_0" /><vehicle id="vehicle_148" type="DEFAULT_VEHTYPE" depart="182.03999999999968" route="route_0" /><vehicle id="vehicle_149" type="DEFAULT_VEHTYPE" depart="183.26999999999967" route="route_0" /><vehicle id="vehicle_150" type="DEFAULT_VEHTYPE" depart="184.49999999999966" route="route_0" /><vehicle id="vehicle_151" type="DEFAULT_VEHTYPE" depart="185.72999999999965" route="route_2" /><vehicle id="vehicle_152" type="DEFAULT_VEHTYPE" depart="186.95999999999964" route="route_2" /><vehicle id="vehicle_153" type="DEFAULT_VEHTYPE" depart="188.18999999999963" route="route_0" /><vehicle id="vehicle_154" type="DEFAULT_VEHTYPE" depart="189.41999999999962" route="route_2" /><vehicle id="vehicle_155" type="DEFAULT_VEHTYPE" depart="190.6499999999996" route="route_0" /><vehicle id="vehicle_156" type="DEFAULT_VEHTYPE" depart="191.8799999999996" route="route_2" /><vehicle id="vehicle_157" type="DEFAULT_VEHTYPE" depart="193.1099999999996" route="route_0" /><vehicle id="vehicle_158" type="DEFAULT_VEHTYPE" depart="194.33999999999958" route="route_0" /><vehicle id="vehicle_159" type="DEFAULT_VEHTYPE" depart="195.56999999999957" route="route_2" /><vehicle id="vehicle_160" type="DEFAULT_VEHTYPE" depart="196.79999999999956" route="route_2" /><vehicle id="vehicle_161" type="DEFAULT_VEHTYPE" depart="198.02999999999955" route="route_2" /><vehicle id="vehicle_162" type="DEFAULT_VEHTYPE" depart="199.25999999999954" route="route_2" /><vehicle id="vehicle_163" type="DEFAULT_VEHTYPE" depart="200.48999999999953" route="route_2" /><vehicle id="vehicle_164" type="DEFAULT_VEHTYPE" depart="201.71999999999952" route="route_0" /><vehicle id="vehicle_165" type="DEFAULT_VEHTYPE" depart="202.9499999999995" route="route_2" /><vehicle id="vehicle_166" type="DEFAULT_VEHTYPE" depart="204.1799999999995" route="route_0" /><vehicle id="vehicle_167" type="DEFAULT_VEHTYPE" depart="205.40999999999948" route="route_2" /><vehicle id="vehicle_168" type="DEFAULT_VEHTYPE" depart="206.63999999999947" route="route_0" /><vehicle id="vehicle_169" type="DEFAULT_VEHTYPE" depart="207.86999999999946" route="route_0" /><vehicle id="vehicle_170" type="DEFAULT_VEHTYPE" depart="209.09999999999945" route="route_0" /><vehicle id="vehicle_171" type="DEFAULT_VEHTYPE" depart="210.32999999999944" route="route_2" /><vehicle id="vehicle_172" type="DEFAULT_VEHTYPE" depart="211.55999999999943" route="route_0" /><vehicle id="vehicle_173" type="DEFAULT_VEHTYPE" depart="212.78999999999942" route="route_0" /><vehicle id="vehicle_174" type="DEFAULT_VEHTYPE" depart="214.0199999999994" route="route_0" /><vehicle id="vehicle_175" type="DEFAULT_VEHTYPE" depart="215.2499999999994" route="route_2" /><vehicle id="vehicle_176" type="DEFAULT_VEHTYPE" depart="216.4799999999994" route="route_2" /><vehicle id="vehicle_177" type="DEFAULT_VEHTYPE" depart="217.70999999999938" route="route_2" /><vehicle id="vehicle_178" type="DEFAULT_VEHTYPE" depart="218.93999999999937" route="route_0" /><vehicle id="vehicle_179" type="DEFAULT_VEHTYPE" depart="220.16999999999936" route="route_2" /><vehicle id="vehicle_180" type="DEFAULT_VEHTYPE" depart="221.39999999999935" route="route_0" /><vehicle id="vehicle_181" type="DEFAULT_VEHTYPE" depart="222.62999999999934" route="route_2" /><vehicle id="vehicle_182" type="DEFAULT_VEHTYPE" depart="223.85999999999933" route="route_0" /><vehicle id="vehicle_183" type="DEFAULT_VEHTYPE" depart="225.08999999999932" route="route_0" /><vehicle id="vehicle_184" type="DEFAULT_VEHTYPE" depart="226.3199999999993" route="route_2" /><vehicle id="vehicle_185" type="DEFAULT_VEHTYPE" depart="227.5499999999993" route="route_2" /><vehicle id="vehicle_186" type="DEFAULT_VEHTYPE" depart="228.7799999999993" route="route_0" /><vehicle id="vehicle_187" type="DEFAULT_VEHTYPE" depart="230.00999999999928" route="route_0" /><vehicle id="vehicle_188" type="DEFAULT_VEHTYPE" depart="231.23999999999927" route="route_2" /><vehicle id="vehicle_189" type="DEFAULT_VEHTYPE" depart="232.46999999999926" route="route_2" /><vehicle id="vehicle_190" type="DEFAULT_VEHTYPE" depart="233.69999999999925" route="route_0" /><vehicle id="vehicle_191" type="DEFAULT_VEHTYPE" depart="234.92999999999924" route="route_0" /><vehicle id="vehicle_192" type="DEFAULT_VEHTYPE" depart="236.15999999999923" route="route_2" /><vehicle id="vehicle_193" type="DEFAULT_VEHTYPE" depart="237.38999999999922" route="route_2" /><vehicle id="vehicle_194" type="DEFAULT_VEHTYPE" depart="238.6199999999992" route="route_0" /><vehicle id="vehicle_195" type="DEFAULT_VEHTYPE" depart="239.8499999999992" route="route_2" /><vehicle id="vehicle_196" type="DEFAULT_VEHTYPE" depart="241.0799999999992" route="route_2" /><vehicle id="vehicle_197" type="DEFAULT_VEHTYPE" depart="242.30999999999918" route="route_0" /><vehicle id="vehicle_198" type="DEFAULT_VEHTYPE" depart="243.53999999999917" route="route_2" /><vehicle id="vehicle_199" type="DEFAULT_VEHTYPE" depart="244.76999999999916" route="route_2" /><vehicle id="vehicle_200" type="DEFAULT_VEHTYPE" depart="245.99999999999915" route="route_2" /><vehicle id="vehicle_201" type="DEFAULT_VEHTYPE" depart="247.22999999999914" route="route_2" /><vehicle id="vehicle_202" type="DEFAULT_VEHTYPE" depart="248.45999999999913" route="route_2" /><vehicle id="vehicle_203" type="DEFAULT_VEHTYPE" depart="249.68999999999912" route="route_0" /><vehicle id="vehicle_204" type="DEFAULT_VEHTYPE" depart="250.9199999999991" route="route_2" /><vehicle id="vehicle_205" type="DEFAULT_VEHTYPE" depart="252.1499999999991" route="route_2" /><vehicle id="vehicle_206" type="DEFAULT_VEHTYPE" depart="253.3799999999991" route="route_2" /><vehicle id="vehicle_207" type="DEFAULT_VEHTYPE" depart="254.60999999999908" route="route_2" /><vehicle id="vehicle_208" type="DEFAULT_VEHTYPE" depart="255.83999999999907" route="route_0" /><vehicle id="vehicle_209" type="DEFAULT_VEHTYPE" depart="257.0699999999991" route="route_0" /><vehicle id="vehicle_210" type="DEFAULT_VEHTYPE" depart="258.2999999999991" route="route_2" /><vehicle id="vehicle_211" type="DEFAULT_VEHTYPE" depart="259.5299999999991" route="route_0" /><vehicle id="vehicle_212" type="DEFAULT_VEHTYPE" depart="260.75999999999914" route="route_0" /><vehicle id="vehicle_213" type="DEFAULT_VEHTYPE" depart="261.98999999999916" route="route_0" /><vehicle id="vehicle_214" type="DEFAULT_VEHTYPE" depart="263.2199999999992" route="route_0" /><vehicle id="vehicle_215" type="DEFAULT_VEHTYPE" depart="264.4499999999992" route="route_2" /><vehicle id="vehicle_216" type="DEFAULT_VEHTYPE" depart="265.6799999999992" route="route_2" /><vehicle id="vehicle_217" type="DEFAULT_VEHTYPE" depart="266.90999999999923" route="route_2" /><vehicle id="vehicle_218" type="DEFAULT_VEHTYPE" depart="268.13999999999925" route="route_0" /><vehicle id="vehicle_219" type="DEFAULT_VEHTYPE" depart="269.36999999999927" route="route_0" /><vehicle id="vehicle_220" type="DEFAULT_VEHTYPE" depart="270.5999999999993" route="route_0" /><vehicle id="vehicle_221" type="DEFAULT_VEHTYPE" depart="271.8299999999993" route="route_0" /><vehicle id="vehicle_222" type="DEFAULT_VEHTYPE" depart="273.0599999999993" route="route_2" /><vehicle id="vehicle_223" type="DEFAULT_VEHTYPE" depart="274.28999999999934" route="route_2" /><vehicle id="vehicle_224" type="DEFAULT_VEHTYPE" depart="275.51999999999936" route="route_2" /><vehicle id="vehicle_225" type="DEFAULT_VEHTYPE" depart="276.7499999999994" route="route_0" /><vehicle id="vehicle_226" type="DEFAULT_VEHTYPE" depart="277.9799999999994" route="route_2" /><vehicle id="vehicle_227" type="DEFAULT_VEHTYPE" depart="279.2099999999994" route="route_0" /><vehicle id="vehicle_228" type="DEFAULT_VEHTYPE" depart="280.43999999999943" route="route_2" /><vehicle id="vehicle_229" type="DEFAULT_VEHTYPE" depart="281.66999999999945" route="route_2" /><vehicle id="vehicle_230" type="DEFAULT_VEHTYPE" depart="282.89999999999947" route="route_0" /><vehicle id="vehicle_231" type="DEFAULT_VEHTYPE" depart="284.1299999999995" route="route_0" /><vehicle id="vehicle_232" type="DEFAULT_VEHTYPE" depart="285.3599999999995" route="route_2" /><vehicle id="vehicle_233" type="DEFAULT_VEHTYPE" depart="286.5899999999995" route="route_0" /><vehicle id="vehicle_234" type="DEFAULT_VEHTYPE" depart="287.81999999999954" route="route_2" /><vehicle id="vehicle_235" type="DEFAULT_VEHTYPE" depart="289.04999999999956" route="route_0" /><vehicle id="vehicle_236" type="DEFAULT_VEHTYPE" depart="290.2799999999996" route="route_2" /><vehicle id="vehicle_237" type="DEFAULT_VEHTYPE" depart="291.5099999999996" route="route_2" /><vehicle id="vehicle_238" type="DEFAULT_VEHTYPE" depart="292.7399999999996" route="route_2" /><vehicle id="vehicle_239" type="DEFAULT_VEHTYPE" depart="293.96999999999963" route="route_2" /><vehicle id="vehicle_240" type="DEFAULT_VEHTYPE" depart="295.19999999999965" route="route_2" /><vehicle id="vehicle_241" type="DEFAULT_VEHTYPE" depart="296.42999999999967" route="route_0" /><vehicle id="vehicle_242" type="DEFAULT_VEHTYPE" depart="297.6599999999997" route="route_0" /><vehicle id="vehicle_243" type="DEFAULT_VEHTYPE" depart="298.8899999999997" route="route_0" /><vehicle id="vehicle_244" type="DEFAULT_VEHTYPE" depart="300.1199999999997" route="route_2" /><vehicle id="vehicle_245" type="DEFAULT_VEHTYPE" depart="301.34999999999974" route="route_2" /><vehicle id="vehicle_246" type="DEFAULT_VEHTYPE" depart="302.57999999999976" route="route_2" /><vehicle id="vehicle_247" type="DEFAULT_VEHTYPE" depart="303.8099999999998" route="route_0" /><vehicle id="vehicle_248" type="DEFAULT_VEHTYPE" depart="305.0399999999998" route="route_2" /><vehicle id="vehicle_249" type="DEFAULT_VEHTYPE" depart="306.2699999999998" route="route_0" /><vehicle id="vehicle_250" type="DEFAULT_VEHTYPE" depart="307.49999999999983" route="route_2" /><vehicle id="vehicle_251" type="DEFAULT_VEHTYPE" depart="308.72999999999985" route="route_2" /><vehicle id="vehicle_252" type="DEFAULT_VEHTYPE" depart="309.95999999999987" route="route_2" /><vehicle id="vehicle_253" type="DEFAULT_VEHTYPE" depart="311.1899999999999" route="route_0" /><vehicle id="vehicle_254" type="DEFAULT_VEHTYPE" depart="312.4199999999999" route="route_2" /><vehicle id="vehicle_255" type="DEFAULT_VEHTYPE" depart="313.6499999999999" route="route_0" /><vehicle id="vehicle_256" type="DEFAULT_VEHTYPE" depart="314.87999999999994" route="route_2" /><vehicle id="vehicle_257" type="DEFAULT_VEHTYPE" depart="316.10999999999996" route="route_0" /><vehicle id="vehicle_258" type="DEFAULT_VEHTYPE" depart="317.34" route="route_2" /><vehicle id="vehicle_259" type="DEFAULT_VEHTYPE" depart="318.57" route="route_2" /><vehicle id="vehicle_260" type="DEFAULT_VEHTYPE" depart="319.8" route="route_0" /><vehicle id="vehicle_261" type="DEFAULT_VEHTYPE" depart="321.03000000000003" route="route_0" /><vehicle id="vehicle_262" type="DEFAULT_VEHTYPE" depart="322.26000000000005" route="route_2" /><vehicle id="vehicle_263" type="DEFAULT_VEHTYPE" depart="323.49000000000007" route="route_2" /><vehicle id="vehicle_264" type="DEFAULT_VEHTYPE" depart="324.7200000000001" route="route_0" /><vehicle id="vehicle_265" type="DEFAULT_VEHTYPE" depart="325.9500000000001" route="route_2" /><vehicle id="vehicle_266" type="DEFAULT_VEHTYPE" depart="327.1800000000001" route="route_0" /><vehicle id="vehicle_267" type="DEFAULT_VEHTYPE" depart="328.41000000000014" route="route_0" /><vehicle id="vehicle_268" type="DEFAULT_VEHTYPE" depart="329.64000000000016" route="route_0" /><vehicle id="vehicle_269" type="DEFAULT_VEHTYPE" depart="330.8700000000002" route="route_0" /><vehicle id="vehicle_270" type="DEFAULT_VEHTYPE" depart="332.1000000000002" route="route_0" /><vehicle id="vehicle_271" type="DEFAULT_VEHTYPE" depart="333.3300000000002" route="route_0" /><vehicle id="vehicle_272" type="DEFAULT_VEHTYPE" depart="334.56000000000023" route="route_0" /><vehicle id="vehicle_273" type="DEFAULT_VEHTYPE" depart="335.79000000000025" route="route_0" /><vehicle id="vehicle_274" type="DEFAULT_VEHTYPE" depart="337.02000000000027" route="route_0" /><vehicle id="vehicle_275" type="DEFAULT_VEHTYPE" depart="338.2500000000003" route="route_0" /><vehicle id="vehicle_276" type="DEFAULT_VEHTYPE" depart="339.4800000000003" route="route_2" /><vehicle id="vehicle_277" type="DEFAULT_VEHTYPE" depart="340.7100000000003" route="route_2" /><vehicle id="vehicle_278" type="DEFAULT_VEHTYPE" depart="341.94000000000034" route="route_0" /><vehicle id="vehicle_279" type="DEFAULT_VEHTYPE" depart="343.17000000000036" route="route_0" /><vehicle id="vehicle_280" type="DEFAULT_VEHTYPE" depart="344.4000000000004" route="route_2" /><vehicle id="vehicle_281" type="DEFAULT_VEHTYPE" depart="345.6300000000004" route="route_2" /><vehicle id="vehicle_282" type="DEFAULT_VEHTYPE" depart="346.8600000000004" route="route_0" /><vehicle id="vehicle_283" type="DEFAULT_VEHTYPE" depart="348.09000000000043" route="route_0" /><vehicle id="vehicle_284" type="DEFAULT_VEHTYPE" depart="349.32000000000045" route="route_0" /><vehicle id="vehicle_285" type="DEFAULT_VEHTYPE" depart="350.55000000000047" route="route_0" /><vehicle id="vehicle_286" type="DEFAULT_VEHTYPE" depart="351.7800000000005" route="route_0" /><vehicle id="vehicle_287" type="DEFAULT_VEHTYPE" depart="353.0100000000005" route="route_2" /><vehicle id="vehicle_288" type="DEFAULT_VEHTYPE" depart="354.2400000000005" route="route_2" /><vehicle id="vehicle_289" type="DEFAULT_VEHTYPE" depart="355.47000000000054" route="route_2" /><vehicle id="vehicle_290" type="DEFAULT_VEHTYPE" depart="356.70000000000056" route="route_0" /><vehicle id="vehicle_291" type="DEFAULT_VEHTYPE" depart="357.9300000000006" route="route_2" /><vehicle id="vehicle_292" type="DEFAULT_VEHTYPE" depart="359.1600000000006" route="route_0" /><vehicle id="vehicle_293" type="DEFAULT_VEHTYPE" depart="360.3900000000006" route="route_0" /><vehicle id="vehicle_294" type="DEFAULT_VEHTYPE" depart="361.62000000000063" route="route_2" /><vehicle id="vehicle_295" type="DEFAULT_VEHTYPE" depart="362.85000000000065" route="route_2" /><vehicle id="vehicle_296" type="DEFAULT_VEHTYPE" depart="364.08000000000067" route="route_2" /><vehicle id="vehicle_297" type="DEFAULT_VEHTYPE" depart="365.3100000000007" route="route_0" /><vehicle id="vehicle_298" type="DEFAULT_VEHTYPE" depart="366.5400000000007" route="route_2" /><vehicle id="vehicle_299" type="DEFAULT_VEHTYPE" depart="367.7700000000007" route="route_0" /></routes>