<routes>
    <route id="route_0" edges="-319929498#3 -319929498#2" />
    <route id="route_2" edges="-319929498#3 32038440#11" />
<vehicle id="vehicle_0" type="DEFAULT_VEHTYPE" depart="2.333" route="route_0" departSpeed="5.00" /><vehicle id="vehicle_1" type="DEFAULT_VEHTYPE" depart="4.666" route="route_2" departSpeed="5.00" /><vehicle id="vehicle_2" type="DEFAULT_VEHTYPE" depart="6.9990000000000006" route="route_2" departSpeed="5.00" /><vehicle id="vehicle_3" type="DEFAULT_VEHTYPE" depart="9.332" route="route_0" departSpeed="5.00" /><vehicle id="vehicle_4" type="DEFAULT_VEHTYPE" depart="11.665000000000001" route="route_0" departSpeed="5.00" /><vehicle id="vehicle_5" type="DEFAULT_VEHTYPE" depart="13.998000000000001" route="route_2" departSpeed="5.00" /><vehicle id="vehicle_6" type="DEFAULT_VEHTYPE" depart="16.331000000000003" route="route_0" departSpeed="5.00" /><vehicle id="vehicle_7" type="DEFAULT_VEHTYPE" depart="18.664" route="route_0" departSpeed="5.00" /><vehicle id="vehicle_8" type="DEFAULT_VEHTYPE" depart="20.997" route="route_2" departSpeed="5.00" /><vehicle id="vehicle_9" type="DEFAULT_VEHTYPE" depart="23.33" route="route_2" departSpeed="5.00" /><vehicle id="vehicle_10" type="DEFAULT_VEHTYPE" depart="25.662999999999997" route="route_0" departSpeed="5.00" /><vehicle id="vehicle_11" type="DEFAULT_VEHTYPE" depart="27.995999999999995" route="route_0" departSpeed="5.00" /><vehicle id="vehicle_12" type="DEFAULT_VEHTYPE" depart="30.328999999999994" route="route_2" departSpeed="5.00" /><vehicle id="vehicle_13" type="DEFAULT_VEHTYPE" depart="32.66199999999999" route="route_2" departSpeed="5.00" /><vehicle id="vehicle_14" type="DEFAULT_VEHTYPE" depart="34.99499999999999" route="route_2" departSpeed="5.00" /><vehicle id="vehicle_15" type="DEFAULT_VEHTYPE" depart="37.32799999999999" route="route_0" departSpeed="5.00" /><vehicle id="vehicle_16" type="DEFAULT_VEHTYPE" depart="39.66099999999999" route="route_2" departSpeed="5.00" /><vehicle id="vehicle_17" type="DEFAULT_VEHTYPE" depart="41.993999999999986" route="route_0" departSpeed="5.00" /><vehicle id="vehicle_18" type="DEFAULT_VEHTYPE" depart="44.326999999999984" route="route_2" departSpeed="5.00" /><vehicle id="vehicle_19" type="DEFAULT_VEHTYPE" depart="46.65999999999998" route="route_2" departSpeed="5.00" /><vehicle id="vehicle_20" type="DEFAULT_VEHTYPE" depart="48.99299999999998" route="route_2" departSpeed="5.00" /><vehicle id="vehicle_21" type="DEFAULT_VEHTYPE" depart="51.32599999999998" route="route_0" departSpeed="5.00" /><vehicle id="vehicle_22" type="DEFAULT_VEHTYPE" depart="53.65899999999998" route="route_0" departSpeed="5.00" /><vehicle id="vehicle_23" type="DEFAULT_VEHTYPE" depart="55.991999999999976" route="route_0" departSpeed="5.00" /><vehicle id="vehicle_24" type="DEFAULT_VEHTYPE" depart="58.324999999999974" route="route_2" departSpeed="5.00" /><vehicle id="vehicle_25" type="DEFAULT_VEHTYPE" depart="60.65799999999997" route="route_0" departSpeed="5.00" /><vehicle id="vehicle_26" type="DEFAULT_VEHTYPE" depart="62.99099999999997" route="route_2" departSpeed="5.00" /><vehicle id="vehicle_27" type="DEFAULT_VEHTYPE" depart="65.32399999999997" route="route_0" departSpeed="5.00" /><vehicle id="vehicle_28" type="DEFAULT_VEHTYPE" depart="67.65699999999997" route="route_2" departSpeed="5.00" /><vehicle id="vehicle_29" type="DEFAULT_VEHTYPE" depart="69.98999999999997" route="route_0" departSpeed="5.00" /><vehicle id="vehicle_30" type="DEFAULT_VEHTYPE" depart="72.32299999999996" route="route_2" departSpeed="5.00" /><vehicle id="vehicle_31" type="DEFAULT_VEHTYPE" depart="74.65599999999996" route="route_2" departSpeed="5.00" /><vehicle id="vehicle_32" type="DEFAULT_VEHTYPE" depart="76.98899999999996" route="route_2" departSpeed="5.00" /><vehicle id="vehicle_33" type="DEFAULT_VEHTYPE" depart="79.32199999999996" route="route_0" departSpeed="5.00" /><vehicle id="vehicle_34" type="DEFAULT_VEHTYPE" depart="81.65499999999996" route="route_2" departSpeed="5.00" /><vehicle id="vehicle_35" type="DEFAULT_VEHTYPE" depart="83.98799999999996" route="route_0" departSpeed="5.00" /><vehicle id="vehicle_36" type="DEFAULT_VEHTYPE" depart="86.32099999999996" route="route_0" departSpeed="5.00" /><vehicle id="vehicle_37" type="DEFAULT_VEHTYPE" depart="88.65399999999995" route="route_0" departSpeed="5.00" /><vehicle id="vehicle_38" type="DEFAULT_VEHTYPE" depart="90.98699999999995" route="route_0" departSpeed="5.00" /><vehicle id="vehicle_39" type="DEFAULT_VEHTYPE" depart="93.31999999999995" route="route_2" departSpeed="5.00" /><vehicle id="vehicle_40" type="DEFAULT_VEHTYPE" depart="95.65299999999995" route="route_0" departSpeed="5.00" /><vehicle id="vehicle_41" type="DEFAULT_VEHTYPE" depart="97.98599999999995" route="route_2" departSpeed="5.00" /><vehicle id="vehicle_42" type="DEFAULT_VEHTYPE" depart="100.31899999999995" route="route_2" departSpeed="5.00" /><vehicle id="vehicle_43" type="DEFAULT_VEHTYPE" depart="102.65199999999994" route="route_2" departSpeed="5.00" /><vehicle id="vehicle_44" type="DEFAULT_VEHTYPE" depart="104.98499999999994" route="route_0" departSpeed="5.00" /><vehicle id="vehicle_45" type="DEFAULT_VEHTYPE" depart="107.31799999999994" route="route_0" departSpeed="5.00" /><vehicle id="vehicle_46" type="DEFAULT_VEHTYPE" depart="109.65099999999994" route="route_0" departSpeed="5.00" /><vehicle id="vehicle_47" type="DEFAULT_VEHTYPE" depart="111.98399999999994" route="route_0" departSpeed="5.00" /><vehicle id="vehicle_48" type="DEFAULT_VEHTYPE" depart="114.31699999999994" route="route_2" departSpeed="5.00" /><vehicle id="vehicle_49" type="DEFAULT_VEHTYPE" depart="116.64999999999993" route="route_0" departSpeed="5.00" /><vehicle id="vehicle_50" type="DEFAULT_VEHTYPE" depart="118.98299999999993" route="route_2" departSpeed="5.00" /><vehicle id="vehicle_51" type="DEFAULT_VEHTYPE" depart="121.31599999999993" route="route_0" departSpeed="5.00" /><vehicle id="vehicle_52" type="DEFAULT_VEHTYPE" depart="123.64899999999993" route="route_0" departSpeed="5.00" /><vehicle id="vehicle_53" type="DEFAULT_VEHTYPE" depart="125.98199999999993" route="route_0" departSpeed="5.00" /><vehicle id="vehicle_54" type="DEFAULT_VEHTYPE" depart="128.31499999999994" route="route_0" departSpeed="5.00" /><vehicle id="vehicle_55" type="DEFAULT_VEHTYPE" depart="130.64799999999994" route="route_0" departSpeed="5.00" /><vehicle id="vehicle_56" type="DEFAULT_VEHTYPE" depart="132.98099999999994" route="route_0" departSpeed="5.00" /><vehicle id="vehicle_57" type="DEFAULT_VEHTYPE" depart="135.31399999999994" route="route_0" departSpeed="5.00" /><vehicle id="vehicle_58" type="DEFAULT_VEHTYPE" depart="137.64699999999993" route="route_2" departSpeed="5.00" /><vehicle id="vehicle_59" type="DEFAULT_VEHTYPE" depart="139.97999999999993" route="route_0" departSpeed="5.00" /><vehicle id="vehicle_60" type="DEFAULT_VEHTYPE" depart="142.31299999999993" route="route_2" departSpeed="5.00" /><vehicle id="vehicle_61" type="DEFAULT_VEHTYPE" depart="144.64599999999993" route="route_2" departSpeed="5.00" /><vehicle id="vehicle_62" type="DEFAULT_VEHTYPE" depart="146.97899999999993" route="route_0" departSpeed="5.00" /><vehicle id="vehicle_63" type="DEFAULT_VEHTYPE" depart="149.31199999999993" route="route_2" departSpeed="5.00" /><vehicle id="vehicle_64" type="DEFAULT_VEHTYPE" depart="151.64499999999992" route="route_2" departSpeed="5.00" /><vehicle id="vehicle_65" type="DEFAULT_VEHTYPE" depart="153.97799999999992" route="route_2" departSpeed="5.00" /><vehicle id="vehicle_66" type="DEFAULT_VEHTYPE" depart="156.31099999999992" route="route_0" departSpeed="5.00" /><vehicle id="vehicle_67" type="DEFAULT_VEHTYPE" depart="158.64399999999992" route="route_0" departSpeed="5.00" /><vehicle id="vehicle_68" type="DEFAULT_VEHTYPE" depart="160.97699999999992" route="route_0" departSpeed="5.00" /><vehicle id="vehicle_69" type="DEFAULT_VEHTYPE" depart="163.30999999999992" route="route_0" departSpeed="5.00" /><vehicle id="vehicle_70" type="DEFAULT_VEHTYPE" depart="165.64299999999992" route="route_2" departSpeed="5.00" /><vehicle id="vehicle_71" type="DEFAULT_VEHTYPE" depart="167.9759999999999" route="route_0" departSpeed="5.00" /><vehicle id="vehicle_72" type="DEFAULT_VEHTYPE" depart="170.3089999999999" route="route_2" departSpeed="5.00" /><vehicle id="vehicle_73" type="DEFAULT_VEHTYPE" depart="172.6419999999999" route="route_2" departSpeed="5.00" /><vehicle id="vehicle_74" type="DEFAULT_VEHTYPE" depart="174.9749999999999" route="route_2" departSpeed="5.00" /><vehicle id="vehicle_75" type="DEFAULT_VEHTYPE" depart="177.3079999999999" route="route_0" departSpeed="5.00" /><vehicle id="vehicle_76" type="DEFAULT_VEHTYPE" depart="179.6409999999999" route="route_2" departSpeed="5.00" /><vehicle id="vehicle_77" type="DEFAULT_VEHTYPE" depart="181.9739999999999" route="route_2" departSpeed="5.00" /><vehicle id="vehicle_78" type="DEFAULT_VEHTYPE" depart="184.3069999999999" route="route_0" departSpeed="5.00" /><vehicle id="vehicle_79" type="DEFAULT_VEHTYPE" depart="186.6399999999999" route="route_0" departSpeed="5.00" /><vehicle id="vehicle_80" type="DEFAULT_VEHTYPE" depart="188.9729999999999" route="route_0" departSpeed="5.00" /><vehicle id="vehicle_81" type="DEFAULT_VEHTYPE" depart="191.3059999999999" route="route_0" departSpeed="5.00" /><vehicle id="vehicle_82" type="DEFAULT_VEHTYPE" depart="193.6389999999999" route="route_0" departSpeed="5.00" /><vehicle id="vehicle_83" type="DEFAULT_VEHTYPE" depart="195.9719999999999" route="route_0" departSpeed="5.00" /><vehicle id="vehicle_84" type="DEFAULT_VEHTYPE" depart="198.3049999999999" route="route_2" departSpeed="5.00" /><vehicle id="vehicle_85" type="DEFAULT_VEHTYPE" depart="200.6379999999999" route="route_0" departSpeed="5.00" /><vehicle id="vehicle_86" type="DEFAULT_VEHTYPE" depart="202.9709999999999" route="route_2" departSpeed="5.00" /><vehicle id="vehicle_87" type="DEFAULT_VEHTYPE" depart="205.3039999999999" route="route_0" departSpeed="5.00" /><vehicle id="vehicle_88" type="DEFAULT_VEHTYPE" depart="207.6369999999999" route="route_0" departSpeed="5.00" /><vehicle id="vehicle_89" type="DEFAULT_VEHTYPE" depart="209.96999999999989" route="route_2" departSpeed="5.00" /><vehicle id="vehicle_90" type="DEFAULT_VEHTYPE" depart="212.30299999999988" route="route_2" departSpeed="5.00" /><vehicle id="vehicle_91" type="DEFAULT_VEHTYPE" depart="214.63599999999988" route="route_2" departSpeed="5.00" /><vehicle id="vehicle_92" type="DEFAULT_VEHTYPE" depart="216.96899999999988" route="route_2" departSpeed="5.00" /><vehicle id="vehicle_93" type="DEFAULT_VEHTYPE" depart="219.30199999999988" route="route_2" departSpeed="5.00" /><vehicle id="vehicle_94" type="DEFAULT_VEHTYPE" depart="221.63499999999988" route="route_0" departSpeed="5.00" /><vehicle id="vehicle_95" type="DEFAULT_VEHTYPE" depart="223.96799999999988" route="route_2" departSpeed="5.00" /><vehicle id="vehicle_96" type="DEFAULT_VEHTYPE" depart="226.30099999999987" route="route_0" departSpeed="5.00" /><vehicle id="vehicle_97" type="DEFAULT_VEHTYPE" depart="228.63399999999987" route="route_0" departSpeed="5.00" /><vehicle id="vehicle_98" type="DEFAULT_VEHTYPE" depart="230.96699999999987" route="route_0" departSpeed="5.00" /><vehicle id="vehicle_99" type="DEFAULT_VEHTYPE" depart="233.29999999999987" route="route_0" departSpeed="5.00" /><vehicle id="vehicle_100" type="DEFAULT_VEHTYPE" depart="235.63299999999987" route="route_0" departSpeed="5.00" /><vehicle id="vehicle_101" type="DEFAULT_VEHTYPE" depart="237.96599999999987" route="route_2" departSpeed="5.00" /><vehicle id="vehicle_102" type="DEFAULT_VEHTYPE" depart="240.29899999999986" route="route_0" departSpeed="5.00" /><vehicle id="vehicle_103" type="DEFAULT_VEHTYPE" depart="242.63199999999986" route="route_2" departSpeed="5.00" /><vehicle id="vehicle_104" type="DEFAULT_VEHTYPE" depart="244.96499999999986" route="route_0" departSpeed="5.00" /><vehicle id="vehicle_105" type="DEFAULT_VEHTYPE" depart="247.29799999999986" route="route_0" departSpeed="5.00" /><vehicle id="vehicle_106" type="DEFAULT_VEHTYPE" depart="249.63099999999986" route="route_0" departSpeed="5.00" /><vehicle id="vehicle_107" type="DEFAULT_VEHTYPE" depart="251.96399999999986" route="route_0" departSpeed="5.00" /><vehicle id="vehicle_108" type="DEFAULT_VEHTYPE" depart="254.29699999999985" route="route_0" departSpeed="5.00" /><vehicle id="vehicle_109" type="DEFAULT_VEHTYPE" depart="256.6299999999999" route="route_0" departSpeed="5.00" /><vehicle id="vehicle_110" type="DEFAULT_VEHTYPE" depart="258.9629999999999" route="route_0" departSpeed="5.00" /><vehicle id="vehicle_111" type="DEFAULT_VEHTYPE" depart="261.29599999999994" route="route_2" departSpeed="5.00" /><vehicle id="vehicle_112" type="DEFAULT_VEHTYPE" depart="263.62899999999996" route="route_0" departSpeed="5.00" /><vehicle id="vehicle_113" type="DEFAULT_VEHTYPE" depart="265.962" route="route_0" departSpeed="5.00" /><vehicle id="vehicle_114" type="DEFAULT_VEHTYPE" depart="268.295" route="route_0" departSpeed="5.00" /><vehicle id="vehicle_115" type="DEFAULT_VEHTYPE" depart="270.62800000000004" route="route_2" departSpeed="5.00" /><vehicle id="vehicle_116" type="DEFAULT_VEHTYPE" depart="272.96100000000007" route="route_2" departSpeed="5.00" /><vehicle id="vehicle_117" type="DEFAULT_VEHTYPE" depart="275.2940000000001" route="route_0" departSpeed="5.00" /><vehicle id="vehicle_118" type="DEFAULT_VEHTYPE" depart="277.6270000000001" route="route_0" departSpeed="5.00" /><vehicle id="vehicle_119" type="DEFAULT_VEHTYPE" depart="279.96000000000015" route="route_2" departSpeed="5.00" /><vehicle id="vehicle_120" type="DEFAULT_VEHTYPE" depart="282.2930000000002" route="route_2" departSpeed="5.00" /><vehicle id="vehicle_121" type="DEFAULT_VEHTYPE" depart="284.6260000000002" route="route_2" departSpeed="5.00" /><vehicle id="vehicle_122" type="DEFAULT_VEHTYPE" depart="286.95900000000023" route="route_2" departSpeed="5.00" /><vehicle id="vehicle_123" type="DEFAULT_VEHTYPE" depart="289.29200000000026" route="route_2" departSpeed="5.00" /><vehicle id="vehicle_124" type="DEFAULT_VEHTYPE" depart="291.6250000000003" route="route_2" departSpeed="5.00" /><vehicle id="vehicle_125" type="DEFAULT_VEHTYPE" depart="293.9580000000003" route="route_2" departSpeed="5.00" /><vehicle id="vehicle_126" type="DEFAULT_VEHTYPE" depart="296.29100000000034" route="route_0" departSpeed="5.00" /><vehicle id="vehicle_127" type="DEFAULT_VEHTYPE" depart="298.62400000000036" route="route_2" departSpeed="5.00" /><vehicle id="vehicle_128" type="DEFAULT_VEHTYPE" depart="300.9570000000004" route="route_2" departSpeed="5.00" /><vehicle id="vehicle_129" type="DEFAULT_VEHTYPE" depart="303.2900000000004" route="route_0" departSpeed="5.00" /><vehicle id="vehicle_130" type="DEFAULT_VEHTYPE" depart="305.62300000000045" route="route_2" departSpeed="5.00" /><vehicle id="vehicle_131" type="DEFAULT_VEHTYPE" depart="307.9560000000005" route="route_2" departSpeed="5.00" /><vehicle id="vehicle_132" type="DEFAULT_VEHTYPE" depart="310.2890000000005" route="route_2" departSpeed="5.00" /><vehicle id="vehicle_133" type="DEFAULT_VEHTYPE" depart="312.6220000000005" route="route_0" departSpeed="5.00" /><vehicle id="vehicle_134" type="DEFAULT_VEHTYPE" depart="314.95500000000055" route="route_2" departSpeed="5.00" /><vehicle id="vehicle_135" type="DEFAULT_VEHTYPE" depart="317.2880000000006" route="route_2" departSpeed="5.00" /><vehicle id="vehicle_136" type="DEFAULT_VEHTYPE" depart="319.6210000000006" route="route_0" departSpeed="5.00" /><vehicle id="vehicle_137" type="DEFAULT_VEHTYPE" depart="321.95400000000063" route="route_0" departSpeed="5.00" /><vehicle id="vehicle_138" type="DEFAULT_VEHTYPE" depart="324.28700000000066" route="route_0" departSpeed="5.00" /><vehicle id="vehicle_139" type="DEFAULT_VEHTYPE" depart="326.6200000000007" route="route_2" departSpeed="5.00" /><vehicle id="vehicle_140" type="DEFAULT_VEHTYPE" depart="328.9530000000007" route="route_0" departSpeed="5.00" /><vehicle id="vehicle_141" type="DEFAULT_VEHTYPE" depart="331.28600000000074" route="route_0" departSpeed="5.00" /><vehicle id="vehicle_142" type="DEFAULT_VEHTYPE" depart="333.61900000000077" route="route_2" departSpeed="5.00" /><vehicle id="vehicle_143" type="DEFAULT_VEHTYPE" depart="335.9520000000008" route="route_2" departSpeed="5.00" /><vehicle id="vehicle_144" type="DEFAULT_VEHTYPE" depart="338.2850000000008" route="route_2" departSpeed="5.00" /><vehicle id="vehicle_145" type="DEFAULT_VEHTYPE" depart="340.61800000000085" route="route_2" departSpeed="5.00" /><vehicle id="vehicle_146" type="DEFAULT_VEHTYPE" depart="342.9510000000009" route="route_2" departSpeed="5.00" /><vehicle id="vehicle_147" type="DEFAULT_VEHTYPE" depart="345.2840000000009" route="route_2" departSpeed="5.00" /><vehicle id="vehicle_148" type="DEFAULT_VEHTYPE" depart="347.6170000000009" route="route_2" departSpeed="5.00" /><vehicle id="vehicle_149" type="DEFAULT_VEHTYPE" depart="349.95000000000095" route="route_0" departSpeed="5.00" /><vehicle id="vehicle_150" type="DEFAULT_VEHTYPE" depart="352.283000000001" route="route_2" departSpeed="5.00" /><vehicle id="vehicle_151" type="DEFAULT_VEHTYPE" depart="354.616000000001" route="route_0" departSpeed="5.00" /><vehicle id="vehicle_152" type="DEFAULT_VEHTYPE" depart="356.94900000000104" route="route_0" departSpeed="5.00" /><vehicle id="vehicle_153" type="DEFAULT_VEHTYPE" depart="359.28200000000106" route="route_2" departSpeed="5.00" /><vehicle id="vehicle_154" type="DEFAULT_VEHTYPE" depart="361.6150000000011" route="route_2" departSpeed="5.00" /><vehicle id="vehicle_155" type="DEFAULT_VEHTYPE" depart="363.9480000000011" route="route_2" departSpeed="5.00" /><vehicle id="vehicle_156" type="DEFAULT_VEHTYPE" depart="366.28100000000114" route="route_2" departSpeed="5.00" /><vehicle id="vehicle_157" type="DEFAULT_VEHTYPE" depart="368.61400000000117" route="route_0" departSpeed="5.00" /><vehicle id="vehicle_158" type="DEFAULT_VEHTYPE" depart="370.9470000000012" route="route_2" departSpeed="5.00" /><vehicle id="vehicle_159" type="DEFAULT_VEHTYPE" depart="373.2800000000012" route="route_2" departSpeed="5.00" /><vehicle id="vehicle_160" type="DEFAULT_VEHTYPE" depart="375.61300000000125" route="route_0" departSpeed="5.00" /><vehicle id="vehicle_161" type="DEFAULT_VEHTYPE" depart="377.9460000000013" route="route_0" departSpeed="5.00" /><vehicle id="vehicle_162" type="DEFAULT_VEHTYPE" depart="380.2790000000013" route="route_0" departSpeed="5.00" /><vehicle id="vehicle_163" type="DEFAULT_VEHTYPE" depart="382.61200000000133" route="route_0" departSpeed="5.00" /><vehicle id="vehicle_164" type="DEFAULT_VEHTYPE" depart="384.94500000000136" route="route_2" departSpeed="5.00" /><vehicle id="vehicle_165" type="DEFAULT_VEHTYPE" depart="387.2780000000014" route="route_0" departSpeed="5.00" /><vehicle id="vehicle_166" type="DEFAULT_VEHTYPE" depart="389.6110000000014" route="route_0" departSpeed="5.00" /><vehicle id="vehicle_167" type="DEFAULT_VEHTYPE" depart="391.94400000000144" route="route_0" departSpeed="5.00" /><vehicle id="vehicle_168" type="DEFAULT_VEHTYPE" depart="394.27700000000146" route="route_2" departSpeed="5.00" /><vehicle id="vehicle_169" type="DEFAULT_VEHTYPE" depart="396.6100000000015" route="route_0" departSpeed="5.00" /><vehicle id="vehicle_170" type="DEFAULT_VEHTYPE" depart="398.9430000000015" route="route_0" departSpeed="5.00" /><vehicle id="vehicle_171" type="DEFAULT_VEHTYPE" depart="401.27600000000155" route="route_0" departSpeed="5.00" /><vehicle id="vehicle_172" type="DEFAULT_VEHTYPE" depart="403.6090000000016" route="route_0" departSpeed="5.00" /><vehicle id="vehicle_173" type="DEFAULT_VEHTYPE" depart="405.9420000000016" route="route_2" departSpeed="5.00" /><vehicle id="vehicle_174" type="DEFAULT_VEHTYPE" depart="408.2750000000016" route="route_2" departSpeed="5.00" /><vehicle id="vehicle_175" type="DEFAULT_VEHTYPE" depart="410.60800000000165" route="route_0" departSpeed="5.00" /><vehicle id="vehicle_176" type="DEFAULT_VEHTYPE" depart="412.9410000000017" route="route_2" departSpeed="5.00" /><vehicle id="vehicle_177" type="DEFAULT_VEHTYPE" depart="415.2740000000017" route="route_0" departSpeed="5.00" /><vehicle id="vehicle_178" type="DEFAULT_VEHTYPE" depart="417.60700000000173" route="route_2" departSpeed="5.00" /><vehicle id="vehicle_179" type="DEFAULT_VEHTYPE" depart="419.94000000000176" route="route_0" departSpeed="5.00" /><vehicle id="vehicle_180" type="DEFAULT_VEHTYPE" depart="422.2730000000018" route="route_0" departSpeed="5.00" /><vehicle id="vehicle_181" type="DEFAULT_VEHTYPE" depart="424.6060000000018" route="route_0" departSpeed="5.00" /><vehicle id="vehicle_182" type="DEFAULT_VEHTYPE" depart="426.93900000000184" route="route_2" departSpeed="5.00" /><vehicle id="vehicle_183" type="DEFAULT_VEHTYPE" depart="429.27200000000187" route="route_2" departSpeed="5.00" /><vehicle id="vehicle_184" type="DEFAULT_VEHTYPE" depart="431.6050000000019" route="route_0" departSpeed="5.00" /><vehicle id="vehicle_185" type="DEFAULT_VEHTYPE" depart="433.9380000000019" route="route_0" departSpeed="5.00" /><vehicle id="vehicle_186" type="DEFAULT_VEHTYPE" depart="436.27100000000195" route="route_2" departSpeed="5.00" /><vehicle id="vehicle_187" type="DEFAULT_VEHTYPE" depart="438.604000000002" route="route_2" departSpeed="5.00" /><vehicle id="vehicle_188" type="DEFAULT_VEHTYPE" depart="440.937000000002" route="route_2" departSpeed="5.00" /><vehicle id="vehicle_189" type="DEFAULT_VEHTYPE" depart="443.270000000002" route="route_2" departSpeed="5.00" /><vehicle id="vehicle_190" type="DEFAULT_VEHTYPE" depart="445.60300000000206" route="route_0" departSpeed="5.00" /><vehicle id="vehicle_191" type="DEFAULT_VEHTYPE" depart="447.9360000000021" route="route_0" departSpeed="5.00" /><vehicle id="vehicle_192" type="DEFAULT_VEHTYPE" depart="450.2690000000021" route="route_2" departSpeed="5.00" /><vehicle id="vehicle_193" type="DEFAULT_VEHTYPE" depart="452.60200000000214" route="route_0" departSpeed="5.00" /><vehicle id="vehicle_194" type="DEFAULT_VEHTYPE" depart="454.93500000000216" route="route_0" departSpeed="5.00" /><vehicle id="vehicle_195" type="DEFAULT_VEHTYPE" depart="457.2680000000022" route="route_2" departSpeed="5.00" /><vehicle id="vehicle_196" type="DEFAULT_VEHTYPE" depart="459.6010000000022" route="route_0" departSpeed="5.00" /><vehicle id="vehicle_197" type="DEFAULT_VEHTYPE" depart="461.93400000000224" route="route_2" departSpeed="5.00" /><vehicle id="vehicle_198" type="DEFAULT_VEHTYPE" depart="464.26700000000227" route="route_2" departSpeed="5.00" /><vehicle id="vehicle_199" type="DEFAULT_VEHTYPE" depart="466.6000000000023" route="route_0" departSpeed="5.00" /><vehicle id="vehicle_200" type="DEFAULT_VEHTYPE" depart="468.9330000000023" route="route_2" departSpeed="5.00" /><vehicle id="vehicle_201" type="DEFAULT_VEHTYPE" depart="471.26600000000235" route="route_0" departSpeed="5.00" /><vehicle id="vehicle_202" type="DEFAULT_VEHTYPE" depart="473.5990000000024" route="route_0" departSpeed="5.00" /><vehicle id="vehicle_203" type="DEFAULT_VEHTYPE" depart="475.9320000000024" route="route_0" departSpeed="5.00" /><vehicle id="vehicle_204" type="DEFAULT_VEHTYPE" depart="478.26500000000243" route="route_2" departSpeed="5.00" /><vehicle id="vehicle_205" type="DEFAULT_VEHTYPE" depart="480.59800000000246" route="route_0" departSpeed="5.00" /><vehicle id="vehicle_206" type="DEFAULT_VEHTYPE" depart="482.9310000000025" route="route_2" departSpeed="5.00" /><vehicle id="vehicle_207" type="DEFAULT_VEHTYPE" depart="485.2640000000025" route="route_0" departSpeed="5.00" /><vehicle id="vehicle_208" type="DEFAULT_VEHTYPE" depart="487.59700000000254" route="route_0" departSpeed="5.00" /><vehicle id="vehicle_209" type="DEFAULT_VEHTYPE" depart="489.93000000000256" route="route_2" departSpeed="5.00" /><vehicle id="vehicle_210" type="DEFAULT_VEHTYPE" depart="492.2630000000026" route="route_0" departSpeed="5.00" /><vehicle id="vehicle_211" type="DEFAULT_VEHTYPE" depart="494.5960000000026" route="route_0" departSpeed="5.00" /><vehicle id="vehicle_212" type="DEFAULT_VEHTYPE" depart="496.92900000000265" route="route_2" departSpeed="5.00" /><vehicle id="vehicle_213" type="DEFAULT_VEHTYPE" depart="499.2620000000027" route="route_0" departSpeed="5.00" /><vehicle id="vehicle_214" type="DEFAULT_VEHTYPE" depart="501.5950000000027" route="route_0" departSpeed="5.00" /><vehicle id="vehicle_215" type="DEFAULT_VEHTYPE" depart="503.9280000000027" route="route_2" departSpeed="5.00" /><vehicle id="vehicle_216" type="DEFAULT_VEHTYPE" depart="506.26100000000275" route="route_2" departSpeed="5.00" /><vehicle id="vehicle_217" type="DEFAULT_VEHTYPE" depart="508.5940000000028" route="route_2" departSpeed="5.00" /><vehicle id="vehicle_218" type="DEFAULT_VEHTYPE" depart="510.9270000000028" route="route_0" departSpeed="5.00" /><vehicle id="vehicle_219" type="DEFAULT_VEHTYPE" depart="513.2600000000028" route="route_2" departSpeed="5.00" /><vehicle id="vehicle_220" type="DEFAULT_VEHTYPE" depart="515.5930000000028" route="route_2" departSpeed="5.00" /><vehicle id="vehicle_221" type="DEFAULT_VEHTYPE" depart="517.9260000000028" route="route_2" departSpeed="5.00" /><vehicle id="vehicle_222" type="DEFAULT_VEHTYPE" depart="520.2590000000027" route="route_2" departSpeed="5.00" /><vehicle id="vehicle_223" type="DEFAULT_VEHTYPE" depart="522.5920000000027" route="route_2" departSpeed="5.00" /><vehicle id="vehicle_224" type="DEFAULT_VEHTYPE" depart="524.9250000000027" route="route_0" departSpeed="5.00" /><vehicle id="vehicle_225" type="DEFAULT_VEHTYPE" depart="527.2580000000027" route="route_2" departSpeed="5.00" /><vehicle id="vehicle_226" type="DEFAULT_VEHTYPE" depart="529.5910000000026" route="route_0" departSpeed="5.00" /><vehicle id="vehicle_227" type="DEFAULT_VEHTYPE" depart="531.9240000000026" route="route_0" departSpeed="5.00" /><vehicle id="vehicle_228" type="DEFAULT_VEHTYPE" depart="534.2570000000026" route="route_0" departSpeed="5.00" /><vehicle id="vehicle_229" type="DEFAULT_VEHTYPE" depart="536.5900000000025" route="route_0" departSpeed="5.00" /><vehicle id="vehicle_230" type="DEFAULT_VEHTYPE" depart="538.9230000000025" route="route_0" departSpeed="5.00" /><vehicle id="vehicle_231" type="DEFAULT_VEHTYPE" depart="541.2560000000025" route="route_0" departSpeed="5.00" /><vehicle id="vehicle_232" type="DEFAULT_VEHTYPE" depart="543.5890000000024" route="route_2" departSpeed="5.00" /><vehicle id="vehicle_233" type="DEFAULT_VEHTYPE" depart="545.9220000000024" route="route_0" departSpeed="5.00" /><vehicle id="vehicle_234" type="DEFAULT_VEHTYPE" depart="548.2550000000024" route="route_0" departSpeed="5.00" /><vehicle id="vehicle_235" type="DEFAULT_VEHTYPE" depart="550.5880000000024" route="route_0" departSpeed="5.00" /><vehicle id="vehicle_236" type="DEFAULT_VEHTYPE" depart="552.9210000000023" route="route_2" departSpeed="5.00" /><vehicle id="vehicle_237" type="DEFAULT_VEHTYPE" depart="555.2540000000023" route="route_0" departSpeed="5.00" /><vehicle id="vehicle_238" type="DEFAULT_VEHTYPE" depart="557.5870000000023" route="route_0" departSpeed="5.00" /><vehicle id="vehicle_239" type="DEFAULT_VEHTYPE" depart="559.9200000000022" route="route_2" departSpeed="5.00" /><vehicle id="vehicle_240" type="DEFAULT_VEHTYPE" depart="562.2530000000022" route="route_2" departSpeed="5.00" /><vehicle id="vehicle_241" type="DEFAULT_VEHTYPE" depart="564.5860000000022" route="route_0" departSpeed="5.00" /><vehicle id="vehicle_242" type="DEFAULT_VEHTYPE" depart="566.9190000000021" route="route_2" departSpeed="5.00" /><vehicle id="vehicle_243" type="DEFAULT_VEHTYPE" depart="569.2520000000021" route="route_2" departSpeed="5.00" /><vehicle id="vehicle_244" type="DEFAULT_VEHTYPE" depart="571.5850000000021" route="route_2" departSpeed="5.00" /><vehicle id="vehicle_245" type="DEFAULT_VEHTYPE" depart="573.918000000002" route="route_2" departSpeed="5.00" /><vehicle id="vehicle_246" type="DEFAULT_VEHTYPE" depart="576.251000000002" route="route_2" departSpeed="5.00" /><vehicle id="vehicle_247" type="DEFAULT_VEHTYPE" depart="578.584000000002" route="route_0" departSpeed="5.00" /><vehicle id="vehicle_248" type="DEFAULT_VEHTYPE" depart="580.917000000002" route="route_2" departSpeed="5.00" /><vehicle id="vehicle_249" type="DEFAULT_VEHTYPE" depart="583.2500000000019" route="route_0" departSpeed="5.00" /><vehicle id="vehicle_250" type="DEFAULT_VEHTYPE" depart="585.5830000000019" route="route_0" departSpeed="5.00" /><vehicle id="vehicle_251" type="DEFAULT_VEHTYPE" depart="587.9160000000019" route="route_2" departSpeed="5.00" /><vehicle id="vehicle_252" type="DEFAULT_VEHTYPE" depart="590.2490000000018" route="route_2" departSpeed="5.00" /><vehicle id="vehicle_253" type="DEFAULT_VEHTYPE" depart="592.5820000000018" route="route_0" departSpeed="5.00" /><vehicle id="vehicle_254" type="DEFAULT_VEHTYPE" depart="594.9150000000018" route="route_0" departSpeed="5.00" /><vehicle id="vehicle_255" type="DEFAULT_VEHTYPE" depart="597.2480000000018" route="route_0" departSpeed="5.00" /><vehicle id="vehicle_256" type="DEFAULT_VEHTYPE" depart="599.5810000000017" route="route_0" departSpeed="5.00" /><vehicle id="vehicle_257" type="DEFAULT_VEHTYPE" depart="601.9140000000017" route="route_2" departSpeed="5.00" /><vehicle id="vehicle_258" type="DEFAULT_VEHTYPE" depart="604.2470000000017" route="route_0" departSpeed="5.00" /><vehicle id="vehicle_259" type="DEFAULT_VEHTYPE" depart="606.5800000000016" route="route_0" departSpeed="5.00" /><vehicle id="vehicle_260" type="DEFAULT_VEHTYPE" depart="608.9130000000016" route="route_2" departSpeed="5.00" /><vehicle id="vehicle_261" type="DEFAULT_VEHTYPE" depart="611.2460000000016" route="route_2" departSpeed="5.00" /><vehicle id="vehicle_262" type="DEFAULT_VEHTYPE" depart="613.5790000000015" route="route_0" departSpeed="5.00" /><vehicle id="vehicle_263" type="DEFAULT_VEHTYPE" depart="615.9120000000015" route="route_2" departSpeed="5.00" /><vehicle id="vehicle_264" type="DEFAULT_VEHTYPE" depart="618.2450000000015" route="route_0" departSpeed="5.00" /><vehicle id="vehicle_265" typ