<routes>
    <route id="route_0" edges="-319929498#3 -319929498#2" />
    <route id="route_2" edges="-319929498#3 32038440#11" />
    <vehicle id="vehicle_0" type="DEFAULT_VEHTYPE" depart="0.00" route="route_0" />
<vehicle id="vehicle_1" type="DEFAULT_VEHTYPE" depart="2.3333" route="route_0" /><vehicle id="vehicle_2" type="DEFAULT_VEHTYPE" depart="4.6666" route="route_2" /><vehicle id="vehicle_3" type="DEFAULT_VEHTYPE" depart="6.9999" route="route_2" /><vehicle id="vehicle_4" type="DEFAULT_VEHTYPE" depart="9.3332" route="route_2" /><vehicle id="vehicle_5" type="DEFAULT_VEHTYPE" depart="11.6665" route="route_2" /><vehicle id="vehicle_6" type="DEFAULT_VEHTYPE" depart="13.999799999999999" route="route_2" /><vehicle id="vehicle_7" type="DEFAULT_VEHTYPE" depart="16.333099999999998" route="route_0" /><vehicle id="vehicle_8" type="DEFAULT_VEHTYPE" depart="18.6664" route="route_2" /><vehicle id="vehicle_9" type="DEFAULT_VEHTYPE" depart="20.9997" route="route_0" /><vehicle id="vehicle_10" type="DEFAULT_VEHTYPE" depart="23.333000000000002" route="route_0" /><vehicle id="vehicle_11" type="DEFAULT_VEHTYPE" depart="25.666300000000003" route="route_2" /><vehicle id="vehicle_12" type="DEFAULT_VEHTYPE" depart="27.999600000000004" route="route_2" /><vehicle id="vehicle_13" type="DEFAULT_VEHTYPE" depart="30.332900000000006" route="route_2" /><vehicle id="vehicle_14" type="DEFAULT_VEHTYPE" depart="32.6662" route="route_2" /><vehicle id="vehicle_15" type="DEFAULT_VEHTYPE" depart="34.999500000000005" route="route_2" /><vehicle id="vehicle_16" type="DEFAULT_VEHTYPE" depart="37.332800000000006" route="route_2" /><vehicle id="vehicle_17" type="DEFAULT_VEHTYPE" depart="39.66610000000001" route="route_2" /><vehicle id="vehicle_18" type="DEFAULT_VEHTYPE" depart="41.99940000000001" route="route_2" /><vehicle id="vehicle_19" type="DEFAULT_VEHTYPE" depart="44.33270000000001" route="route_2" /><vehicle id="vehicle_20" type="DEFAULT_VEHTYPE" depart="46.66600000000001" route="route_2" /><vehicle id="vehicle_21" type="DEFAULT_VEHTYPE" depart="48.99930000000001" route="route_0" /><vehicle id="vehicle_22" type="DEFAULT_VEHTYPE" depart="51.33260000000001" route="route_2" /><vehicle id="vehicle_23" type="DEFAULT_VEHTYPE" depart="53.665900000000015" route="route_2" /><vehicle id="vehicle_24" type="DEFAULT_VEHTYPE" depart="55.999200000000016" route="route_2" /><vehicle id="vehicle_25" type="DEFAULT_VEHTYPE" depart="58.33250000000002" route="route_0" /><vehicle id="vehicle_26" type="DEFAULT_VEHTYPE" depart="60.66580000000002" route="route_0" /><vehicle id="vehicle_27" type="DEFAULT_VEHTYPE" depart="62.99910000000002" route="route_0" /><vehicle id="vehicle_28" type="DEFAULT_VEHTYPE" depart="65.33240000000002" route="route_2" /><vehicle id="vehicle_29" type="DEFAULT_VEHTYPE" depart="67.66570000000002" route="route_0" /><vehicle id="vehicle_30" type="DEFAULT_VEHTYPE" depart="69.99900000000001" route="route_0" /><vehicle id="vehicle_31" type="DEFAULT_VEHTYPE" depart="72.3323" route="route_0" /><vehicle id="vehicle_32" type="DEFAULT_VEHTYPE" depart="74.6656" route="route_0" /><vehicle id="vehicle_33" type="DEFAULT_VEHTYPE" depart="76.99889999999999" route="route_2" /><vehicle id="vehicle_34" type="DEFAULT_VEHTYPE" depart="79.33219999999999" route="route_2" /><vehicle id="vehicle_35" type="DEFAULT_VEHTYPE" depart="81.66549999999998" route="route_0" /><vehicle id="vehicle_36" type="DEFAULT_VEHTYPE" depart="83.99879999999997" route="route_0" /><vehicle id="vehicle_37" type="DEFAULT_VEHTYPE" depart="86.33209999999997" route="route_2" /><vehicle id="vehicle_38" type="DEFAULT_VEHTYPE" depart="88.66539999999996" route="route_2" /><vehicle id="vehicle_39" type="DEFAULT_VEHTYPE" depart="90.99869999999996" route="route_0" /><vehicle id="vehicle_40" type="DEFAULT_VEHTYPE" depart="93.33199999999995" route="route_0" /><vehicle id="vehicle_41" type="DEFAULT_VEHTYPE" depart="95.66529999999995" route="route_2" /><vehicle id="vehicle_42" type="DEFAULT_VEHTYPE" depart="97.99859999999994" route="route_0" /><vehicle id="vehicle_43" type="DEFAULT_VEHTYPE" depart="100.33189999999993" route="route_2" /><vehicle id="vehicle_44" type="DEFAULT_VEHTYPE" depart="102.66519999999993" route="route_2" /><vehicle id="vehicle_45" type="DEFAULT_VEHTYPE" depart="104.99849999999992" route="route_2" /><vehicle id="vehicle_46" type="DEFAULT_VEHTYPE" depart="107.33179999999992" route="route_0" /><vehicle id="vehicle_47" type="DEFAULT_VEHTYPE" depart="109.66509999999991" route="route_0" /><vehicle id="vehicle_48" type="DEFAULT_VEHTYPE" depart="111.9983999999999" route="route_2" /><vehicle id="vehicle_49" type="DEFAULT_VEHTYPE" depart="114.3316999999999" route="route_0" /><vehicle id="vehicle_50" type="DEFAULT_VEHTYPE" depart="116.66499999999989" route="route_2" /><vehicle id="vehicle_51" type="DEFAULT_VEHTYPE" depart="118.99829999999989" route="route_2" /><vehicle id="vehicle_52" type="DEFAULT_VEHTYPE" depart="121.33159999999988" route="route_2" /><vehicle id="vehicle_53" type="DEFAULT_VEHTYPE" depart="123.66489999999988" route="route_0" /><vehicle id="vehicle_54" type="DEFAULT_VEHTYPE" depart="125.99819999999987" route="route_0" /><vehicle id="vehicle_55" type="DEFAULT_VEHTYPE" depart="128.33149999999986" route="route_2" /><vehicle id="vehicle_56" type="DEFAULT_VEHTYPE" depart="130.66479999999987" route="route_2" /><vehicle id="vehicle_57" type="DEFAULT_VEHTYPE" depart="132.99809999999988" route="route_0" /><vehicle id="vehicle_58" type="DEFAULT_VEHTYPE" depart="135.3313999999999" route="route_0" /><vehicle id="vehicle_59" type="DEFAULT_VEHTYPE" depart="137.6646999999999" route="route_0" /><vehicle id="vehicle_60" type="DEFAULT_VEHTYPE" depart="139.9979999999999" route="route_0" /><vehicle id="vehicle_61" type="DEFAULT_VEHTYPE" depart="142.3312999999999" route="route_2" /><vehicle id="vehicle_62" type="DEFAULT_VEHTYPE" depart="144.66459999999992" route="route_2" /><vehicle id="vehicle_63" type="DEFAULT_VEHTYPE" depart="146.99789999999993" route="route_2" /><vehicle id="vehicle_64" type="DEFAULT_VEHTYPE" depart="149.33119999999994" route="route_0" /><vehicle id="vehicle_65" type="DEFAULT_VEHTYPE" depart="151.66449999999995" route="route_0" /><vehicle id="vehicle_66" type="DEFAULT_VEHTYPE" depart="153.99779999999996" route="route_0" /><vehicle id="vehicle_67" type="DEFAULT_VEHTYPE" depart="156.33109999999996" route="route_2" /><vehicle id="vehicle_68" type="DEFAULT_VEHTYPE" depart="158.66439999999997" route="route_0" /><vehicle id="vehicle_69" type="DEFAULT_VEHTYPE" depart="160.99769999999998" route="route_0" /><vehicle id="vehicle_70" type="DEFAULT_VEHTYPE" depart="163.331" route="route_0" /><vehicle id="vehicle_71" type="DEFAULT_VEHTYPE" depart="165.6643" route="route_0" /><vehicle id="vehicle_72" type="DEFAULT_VEHTYPE" depart="167.9976" route="route_0" /><vehicle id="vehicle_73" type="DEFAULT_VEHTYPE" depart="170.3309" route="route_0" /><vehicle id="vehicle_74" type="DEFAULT_VEHTYPE" depart="172.66420000000002" route="route_0" /><vehicle id="vehicle_75" type="DEFAULT_VEHTYPE" depart="174.99750000000003" route="route_0" /><vehicle id="vehicle_76" type="DEFAULT_VEHTYPE" depart="177.33080000000004" route="route_2" /><vehicle id="vehicle_77" type="DEFAULT_VEHTYPE" depart="179.66410000000005" route="route_0" /><vehicle id="vehicle_78" type="DEFAULT_VEHTYPE" depart="181.99740000000006" route="route_2" /><vehicle id="vehicle_79" type="DEFAULT_VEHTYPE" depart="184.33070000000006" route="route_2" /><vehicle id="vehicle_80" type="DEFAULT_VEHTYPE" depart="186.66400000000007" route="route_0" /><vehicle id="vehicle_81" type="DEFAULT_VEHTYPE" depart="188.99730000000008" route="route_0" /><vehicle id="vehicle_82" type="DEFAULT_VEHTYPE" depart="191.3306000000001" route="route_0" /><vehicle id="vehicle_83" type="DEFAULT_VEHTYPE" depart="193.6639000000001" route="route_2" /><vehicle id="vehicle_84" type="DEFAULT_VEHTYPE" depart="195.9972000000001" route="route_2" /><vehicle id="vehicle_85" type="DEFAULT_VEHTYPE" depart="198.33050000000011" route="route_0" /><vehicle id="vehicle_86" type="DEFAULT_VEHTYPE" depart="200.66380000000012" route="route_0" /><vehicle id="vehicle_87" type="DEFAULT_VEHTYPE" depart="202.99710000000013" route="route_0" /><vehicle id="vehicle_88" type="DEFAULT_VEHTYPE" depart="205.33040000000014" route="route_0" /><vehicle id="vehicle_89" type="DEFAULT_VEHTYPE" depart="207.66370000000015" route="route_0" /><vehicle id="vehicle_90" type="DEFAULT_VEHTYPE" depart="209.99700000000016" route="route_0" /><vehicle id="vehicle_91" type="DEFAULT_VEHTYPE" depart="212.33030000000016" route="route_2" /><vehicle id="vehicle_92" type="DEFAULT_VEHTYPE" depart="214.66360000000017" route="route_2" /><vehicle id="vehicle_93" type="DEFAULT_VEHTYPE" depart="216.99690000000018" route="route_2" /><vehicle id="vehicle_94" type="DEFAULT_VEHTYPE" depart="219.3302000000002" route="route_2" /><vehicle id="vehicle_95" type="DEFAULT_VEHTYPE" depart="221.6635000000002" route="route_0" /><vehicle id="vehicle_96" type="DEFAULT_VEHTYPE" depart="223.9968000000002" route="route_0" /><vehicle id="vehicle_97" type="DEFAULT_VEHTYPE" depart="226.33010000000021" route="route_0" /><vehicle id="vehicle_98" type="DEFAULT_VEHTYPE" depart="228.66340000000022" route="route_0" /><vehicle id="vehicle_99" type="DEFAULT_VEHTYPE" depart="230.99670000000023" route="route_2" /><vehicle id="vehicle_100" type="DEFAULT_VEHTYPE" depart="233.33000000000024" route="route_2" /><vehicle id="vehicle_101" type="DEFAULT_VEHTYPE" depart="235.66330000000025" route="route_2" /><vehicle id="vehicle_102" type="DEFAULT_VEHTYPE" depart="237.99660000000026" route="route_0" /><vehicle id="vehicle_103" type="DEFAULT_VEHTYPE" depart="240.32990000000026" route="route_0" /><vehicle id="vehicle_104" type="DEFAULT_VEHTYPE" depart="242.66320000000027" route="route_2" /><vehicle id="vehicle_105" type="DEFAULT_VEHTYPE" depart="244.99650000000028" route="route_2" /><vehicle id="vehicle_106" type="DEFAULT_VEHTYPE" depart="247.3298000000003" route="route_0" /><vehicle id="vehicle_107" type="DEFAULT_VEHTYPE" depart="249.6631000000003" route="route_2" /><vehicle id="vehicle_108" type="DEFAULT_VEHTYPE" depart="251.9964000000003" route="route_0" /><vehicle id="vehicle_109" type="DEFAULT_VEHTYPE" depart="254.32970000000032" route="route_0" /><vehicle id="vehicle_110" type="DEFAULT_VEHTYPE" depart="256.6630000000003" route="route_2" /><vehicle id="vehicle_111" type="DEFAULT_VEHTYPE" depart="258.9963000000003" route="route_0" /><vehicle id="vehicle_112" type="DEFAULT_VEHTYPE" depart="261.3296000000003" route="route_2" /><vehicle id="vehicle_113" type="DEFAULT_VEHTYPE" depart="263.6629000000003" route="route_0" /><vehicle id="vehicle_114" type="DEFAULT_VEHTYPE" depart="265.99620000000033" route="route_0" /><vehicle id="vehicle_115" type="DEFAULT_VEHTYPE" depart="268.32950000000034" route="route_2" /><vehicle id="vehicle_116" type="DEFAULT_VEHTYPE" depart="270.66280000000035" route="route_2" /><vehicle id="vehicle_117" type="DEFAULT_VEHTYPE" depart="272.99610000000035" route="route_0" /><vehicle id="vehicle_118" type="DEFAULT_VEHTYPE" depart="275.32940000000036" route="route_0" /><vehicle id="vehicle_119" type="DEFAULT_VEHTYPE" depart="277.66270000000037" route="route_2" /><vehicle id="vehicle_120" type="DEFAULT_VEHTYPE" depart="279.9960000000004" route="route_0" /><vehicle id="vehicle_121" type="DEFAULT_VEHTYPE" depart="282.3293000000004" route="route_2" /><vehicle id="vehicle_122" type="DEFAULT_VEHTYPE" depart="284.6626000000004" route="route_0" /><vehicle id="vehicle_123" type="DEFAULT_VEHTYPE" depart="286.9959000000004" route="route_0" /><vehicle id="vehicle_124" type="DEFAULT_VEHTYPE" depart="289.3292000000004" route="route_0" /><vehicle id="vehicle_125" type="DEFAULT_VEHTYPE" depart="291.6625000000004" route="route_2" /><vehicle id="vehicle_126" type="DEFAULT_VEHTYPE" depart="293.99580000000043" route="route_0" /><vehicle id="vehicle_127" type="DEFAULT_VEHTYPE" depart="296.32910000000044" route="route_0" /><vehicle id="vehicle_128" type="DEFAULT_VEHTYPE" depart="298.66240000000045" route="route_2" /><vehicle id="vehicle_129" type="DEFAULT_VEHTYPE" depart="300.99570000000045" route="route_0" /><vehicle id="vehicle_130" type="DEFAULT_VEHTYPE" depart="303.32900000000046" route="route_2" /><vehicle id="vehicle_131" type="DEFAULT_VEHTYPE" depart="305.66230000000047" route="route_0" /><vehicle id="vehicle_132" type="DEFAULT_VEHTYPE" depart="307.9956000000005" route="route_2" /><vehicle id="vehicle_133" type="DEFAULT_VEHTYPE" depart="310.3289000000005" route="route_0" /><vehicle id="vehicle_134" type="DEFAULT_VEHTYPE" depart="312.6622000000005" route="route_0" /><vehicle id="vehicle_135" type="DEFAULT_VEHTYPE" depart="314.9955000000005" route="route_0" /><vehicle id="vehicle_136" type="DEFAULT_VEHTYPE" depart="317.3288000000005" route="route_0" /><vehicle id="vehicle_137" type="DEFAULT_VEHTYPE" depart="319.6621000000005" route="route_2" /><vehicle id="vehicle_138" type="DEFAULT_VEHTYPE" depart="321.99540000000053" route="route_0" /><vehicle id="vehicle_139" type="DEFAULT_VEHTYPE" depart="324.32870000000054" route="route_0" /><vehicle id="vehicle_140" type="DEFAULT_VEHTYPE" depart="326.66200000000055" route="route_2" /><vehicle id="vehicle_141" type="DEFAULT_VEHTYPE" depart="328.99530000000055" route="route_0" /><vehicle id="vehicle_142" type="DEFAULT_VEHTYPE" depart="331.32860000000056" route="route_0" /><vehicle id="vehicle_143" type="DEFAULT_VEHTYPE" depart="333.66190000000057" route="route_0" /><vehicle id="vehicle_144" type="DEFAULT_VEHTYPE" depart="335.9952000000006" route="route_2" /><vehicle id="vehicle_145" type="DEFAULT_VEHTYPE" depart="338.3285000000006" route="route_2" /><vehicle id="vehicle_146" type="DEFAULT_VEHTYPE" depart="340.6618000000006" route="route_2" /><vehicle id="vehicle_147" type="DEFAULT_VEHTYPE" depart="342.9951000000006" route="route_2" /><vehicle id="vehicle_148" type="DEFAULT_VEHTYPE" depart="345.3284000000006" route="route_2" /><vehicle id="vehicle_149" type="DEFAULT_VEHTYPE" depart="347.6617000000006" route="route_0" /><vehicle id="vehicle_150" type="DEFAULT_VEHTYPE" depart="349.99500000000063" route="route_0" /><vehicle id="vehicle_151" type="DEFAULT_VEHTYPE" depart="352.32830000000064" route="route_2" /><vehicle id="vehicle_152" type="DEFAULT_VEHTYPE" depart="354.66160000000065" route="route_0" /><vehicle id="vehicle_153" type="DEFAULT_VEHTYPE" depart="356.99490000000065" route="route_2" /><vehicle id="vehicle_154" type="DEFAULT_VEHTYPE" depart="359.32820000000066" route="route_0" /><vehicle id="vehicle_155" type="DEFAULT_VEHTYPE" depart="361.6615000000007" route="route_2" /><vehicle id="vehicle_156" type="DEFAULT_VEHTYPE" depart="363.9948000000007" route="route_0" /><vehicle id="vehicle_157" type="DEFAULT_VEHTYPE" depart="366.3281000000007" route="route_2" /><vehicle id="vehicle_158" type="DEFAULT_VEHTYPE" depart="368.6614000000007" route="route_0" /><vehicle id="vehicle_159" type="DEFAULT_VEHTYPE" depart="370.9947000000007" route="route_0" /><vehicle id="vehicle_160" type="DEFAULT_VEHTYPE" depart="373.3280000000007" route="route_2" /><vehicle id="vehicle_161" type="DEFAULT_VEHTYPE" depart="375.6613000000007" route="route_0" /><vehicle id="vehicle_162" type="DEFAULT_VEHTYPE" depart="377.99460000000073" route="route_0" /><vehicle id="vehicle_163" type="DEFAULT_VEHTYPE" depart="380.32790000000074" route="route_0" /><vehicle id="vehicle_164" type="DEFAULT_VEHTYPE" depart="382.66120000000075" route="route_2" /><vehicle id="vehicle_165" type="DEFAULT_VEHTYPE" depart="384.99450000000076" route="route_2" /><vehicle id="vehicle_166" type="DEFAULT_VEHTYPE" depart="387.32780000000076" route="route_0" /><vehicle id="vehicle_167" type="DEFAULT_VEHTYPE" depart="389.6611000000008" route="route_0" /><vehicle id="vehicle_168" type="DEFAULT_VEHTYPE" depart="391.9944000000008" route="route_0" /><vehicle id="vehicle_169" type="DEFAULT_VEHTYPE" depart="394.3277000000008" route="route_2" /><vehicle id="vehicle_170" type="DEFAULT_VEHTYPE" depart="396.6610000000008" route="route_2" /><vehicle id="vehicle_171" type="DEFAULT_VEHTYPE" depart="398.9943000000008" route="route_2" /><vehicle id="vehicle_172" type="DEFAULT_VEHTYPE" depart="401.3276000000008" route="route_0" /><vehicle id="vehicle_173" type="DEFAULT_VEHTYPE" depart="403.6609000000008" route="route_0" /><vehicle id="vehicle_174" type="DEFAULT_VEHTYPE" depart="405.99420000000083" route="route_2" /><vehicle id="vehicle_175" type="DEFAULT_VEHTYPE" depart="408.32750000000084" route="route_2" /><vehicle id="vehicle_176" type="DEFAULT_VEHTYPE" depart="410.66080000000085" route="route_0" /><vehicle id="vehicle_177" type="DEFAULT_VEHTYPE" depart="412.99410000000086" route="route_2" /><vehicle id="vehicle_178" type="DEFAULT_VEHTYPE" depart="415.32740000000086" route="route_2" /><vehicle id="vehicle_179" type="DEFAULT_VEHTYPE" depart="417.6607000000009" route="route_2" /><vehicle id="vehicle_180" type="DEFAULT_VEHTYPE" depart="419.9940000000009" route="route_2" /><vehicle id="vehicle_181" type="DEFAULT_VEHTYPE" depart="422.3273000000009" route="route_2" /><vehicle id="vehicle_182" type="DEFAULT_VEHTYPE" depart="424.6606000000009" route="route_2" /><vehicle id="vehicle_183" type="DEFAULT_VEHTYPE" depart="426.9939000000009" route="route_0" /><vehicle id="vehicle_184" type="DEFAULT_VEHTYPE" depart="429.3272000000009" route="route_2" /><vehicle id="vehicle_185" type="DEFAULT_VEHTYPE" depart="431.6605000000009" route="route_0" /><vehicle id="vehicle_186" type="DEFAULT_VEHTYPE" depart="433.99380000000093" route="route_0" /><vehicle id="vehicle_187" type="DEFAULT_VEHTYPE" depart="436.32710000000094" route="route_2" /><vehicle id="vehicle_188" type="DEFAULT_VEHTYPE" depart="438.66040000000095" route="route_0" /><vehicle id="vehicle_189" type="DEFAULT_VEHTYPE" depart="440.99370000000096" route="route_2" /><vehicle id="vehicle_190" type="DEFAULT_VEHTYPE" depart="443.32700000000096" route="route_0" /><vehicle id="vehicle_191" type="DEFAULT_VEHTYPE" depart="445.660300000001" route="route_0" /><vehicle id="vehicle_192" type="DEFAULT_VEHTYPE" depart="447.993600000001" route="route_0" /><vehicle id="vehicle_193" type="DEFAULT_VEHTYPE" depart="450.326900000001" route="route_2" /><vehicle id="vehicle_194" type="DEFAULT_VEHTYPE" depart="452.660200000001" route="route_0" /><vehicle id="vehicle_195" type="DEFAULT_VEHTYPE" depart="454.993500000001" route="route_2" /><vehicle id="vehicle_196" type="DEFAULT_VEHTYPE" depart="457.326800000001" route="route_0" /><vehicle id="vehicle_197" type="DEFAULT_VEHTYPE" depart="459.660100000001" route="route_0" /><vehicle id="vehicle_198" type="DEFAULT_VEHTYPE" depart="461.99340000000103" route="route_2" /><vehicle id="vehicle_199" type="DEFAULT_VEHTYPE" depart="464.32670000000104" route="route_2" /><vehicle id="vehicle_200" type="DEFAULT_VEHTYPE" depart="466.66000000000105" route="route_0" /><vehicle id="vehicle_201" type="DEFAULT_VEHTYPE" depart="468.99330000000106" route="route_0" /><vehicle id="vehicle_202" type="DEFAULT_VEHTYPE" depart="471.32660000000106" route="route_0" /><vehicle id="vehicle_203" type="DEFAULT_VEHTYPE" depart="473.6599000000011" route="route_0" /><vehicle id="vehicle_204" type="DEFAULT_VEHTYPE" depart="475.9932000000011" route="route_0" /><vehicle id="vehicle_205" type="DEFAULT_VEHTYPE" depart="478.3265000000011" route="route_0" /><vehicle id="vehicle_206" type="DEFAULT_VEHTYPE" depart="480.6598000000011" route="route_0" /><vehicle id="vehicle_207" type="DEFAULT_VEHTYPE" depart="482.9931000000011" route="route_0" /><vehicle id="vehicle_208" type="DEFAULT_VEHTYPE" depart="485.3264000000011" route="route_0" /><vehicle id="vehicle_209" type="DEFAULT_VEHTYPE" depart="487.6597000000011" route="route_0" /><vehicle id="vehicle_210" type="DEFAULT_VEHTYPE" depart="489.99300000000113" route="route_0" /><vehicle id="vehicle_211" type="DEFAULT_VEHTYPE" depart="492.32630000000114" route="route_0" /><vehicle id="vehicle_212" type="DEFAULT_VEHTYPE" depart="494.65960000000115" route="route_0" /><vehicle id="vehicle_213" type="DEFAULT_VEHTYPE" depart="496.99290000000116" route="route_2" /><vehicle id="vehicle_214" type="DEFAULT_VEHTYPE" depart="499.32620000000117" route="route_0" /><vehicle id="vehicle_215" type="DEFAULT_VEHTYPE" depart="501.6595000000012" route="route_0" /><vehicle id="vehicle_216" type="DEFAULT_VEHTYPE" depart="503.9928000000012" route="route_0" /><vehicle id="vehicle_217" type="DEFAULT_VEHTYPE" depart="506.3261000000012" route="route_0" /><vehicle id="vehicle_218" type="DEFAULT_VEHTYPE" depart="508.6594000000012" route="route_2" /><vehicle id="vehicle_219" type="DEFAULT_VEHTYPE" depart="510.9927000000012" route="route_0" /><vehicle id="vehicle_220" type="DEFAULT_VEHTYPE" depart="513.3260000000012" route="route_2" /><vehicle id="vehicle_221" type="DEFAULT_VEHTYPE" depart="515.6593000000012" route="route_0" /><vehicle id="vehicle_222" type="DEFAULT_VEHTYPE" depart="517.9926000000012" route="route_0" /><vehicle id="vehicle_223" type="DEFAULT_VEHTYPE" depart="520.3259000000012" route="route_2" /><vehicle id="vehicle_224" type="DEFAULT_VEHTYPE" depart="522.6592000000012" route="route_2" /><vehicle id="vehicle_225" type="DEFAULT_VEHTYPE" depart="524.9925000000012" route="route_2" /><vehicle id="vehicle_226" type="DEFAULT_VEHTYPE" depart="527.3258000000012" route="route_0" /><vehicle id="vehicle_227" type="DEFAULT_VEHTYPE" depart="529.6591000000012" route="route_0" /><vehicle id="vehicle_228" type="DEFAULT_VEHTYPE" depart="531.9924000000012" route="route_0" /><vehicle id="vehicle_229" type="DEFAULT_VEHTYPE" depart="534.3257000000012" route="route_0" /><vehicle id="vehicle_230" type="DEFAULT_VEHTYPE" depart="536.6590000000012" route="route_0" /><vehicle id="vehicle_231" type="DEFAULT_VEHTYPE" depart="538.9923000000013" route="route_0" /><vehicle id="vehicle_232" type="DEFAULT_VEHTYPE" depart="541.3256000000013" route="route_2" /><vehicle id="vehicle_233" type="DEFAULT_VEHTYPE" depart="543.6589000000013" route="route_0" /><vehicle id="vehicle_234" type="DEFAULT_VEHTYPE" depart="545.9922000000013" route="route_0" /><vehicle id="vehicle_235" type="DEFAULT_VEHTYPE" depart="548.3255000000013" route="route_0" /><vehicle id="vehicle_236" type="DEFAULT_VEHTYPE" depart="550.6588000000013" route="route_0" /><vehicle id="vehicle_237" type="DEFAULT_VEHTYPE" depart="552.9921000000013" route="route_2" /><vehicle id="vehicle_238" type="DEFAULT_VEHTYPE" depart="555.3254000000013" route="route_0" /><vehicle id="vehicle_239" type="DEFAULT_VEHTYPE" depart="557.6587000000013" route="route_2" /><vehicle id="vehicle_240" type="DEFAULT_VEHTYPE" depart="559.9920000000013" route="route_2" /><vehicle id="vehicle_241" type="DEFAULT_VEHTYPE" depart="562.3253000000013" route="route_2" /><vehicle id="vehicle_242" type="DEFAULT_VEHTYPE" depart="564.6586000000013" route="route_0" /><vehicle id="vehicle_243" type="DEFAULT_VEHTYPE" depart="566.9919000000014" route="route_0" /><vehicle id="vehicle_244" type="DEFAULT_VEHTYPE" depart="569.3252000000014" route="route_0" /><vehicle id="vehicle_245" type="DEFAULT_VEHTYPE" depart="571.6585000000014" route="route_2" /><vehicle id="vehicle_246" type="DEFAULT_VEHTYPE" depart="573.9918000000014" route="route_2" /><vehicle id="vehicle_247" type="DEFAULT_VEHTYPE" depart="576.3251000000014" route="route_2" /><vehicle id="vehicle_248" type="DEFAULT_VEHTYPE" depart="578.6584000000014" route="route_0" /><vehicle id="vehicle_249" type="DEFAULT_VEHTYPE" depart="580.9917000000014" route="route_2" /><vehicle id="vehicle_250" type="DEFAULT_VEHTYPE" depart="583.3250000000014" route="route_0" /><vehicle id="vehicle_251" type="DEFAULT_VEHTYPE" depart="585.6583000000014" route="route_2" /><vehicle id="vehicle_252" type="DEFAULT_VEHTYPE" depart="587.9916000000014" route="route_0" /><vehicle id="vehicle_253" type="DEFAULT_VEHTYPE" depart="590.3249000000014" route="route_2" /><vehicle id="vehicle_254" type="DEFAULT_VEHTYPE" depart="592.6582000000014" route="route_2" /><vehicle id="vehicle_255" type="DEFAULT_VEHTYPE" depart="594.9915000000015" route="route_2" /><vehicle id="vehicle_256" type="DEFAULT_VEHTYPE" depart="597.3248000000015" route="route_2" /><vehicle id="vehicle_257" type="DEFAULT_VEHTYPE" depart="599.6581000000015" route="route_2" /><vehicle id="vehicle_258" type="DEFAULT_VEHTYPE" depart="601.9914000000015" route="route_2" /><vehicle id="vehicle_259" type="DEFAULT_VEHTYPE" depart="604.3247000000015" route="route_0" /><vehicle id="vehicle_260" type="DEFAULT_VEHTYPE" depart="606.6580000000015" route="route_0" /><vehicle id="vehicle_261" type="DEFAULT_VEHTYPE" depart="608.9913000000015" route="route_2" /><vehicle id="vehicle_262" type="DEFAULT_VEHTYPE" depart="611.3246000000015" route="route_2" /><vehicle id="vehicle_263" type="DEFAULT_VEHTYPE" depart="613.6579000000015" route="route_0" /><vehicle id="vehicle_264" type="DEFAULT_VEHTYPE" depart="615.9912000000015" route="route_2" /><vehicle id="vehicle_265" type="DEFAULT_VEHTYPE" depart="618.3245000000015" route="route_2" /><vehicle id="vehicle_266" type="DEFAULT_VEHTYPE" depart="620.6578000000015" route="route_2" /><vehicle id="vehicle_267" type="DEFAULT_VEHTYPE" depart="622.9911000000016" route="route_0" /><vehicle id="vehicle_268" type="DEFAULT_VEHTYPE" depart="625.3244000000016" route="route_0" /><vehicle id="vehicle_269" type="DEFAULT_VEHTYPE" depart="627.6577000000016" route="route_2" /><vehicle id="vehicle_270" type="DEFAULT_VEHTYPE" depart="629.9910000000016" route="route_0" /><vehicle id="vehicle_271" type="DEFAULT_VEHTYPE" depart="632.3243000000016" route="route_0" /><vehicle id="vehicle_272" type="DEFAULT_VEHTYPE" depart="634.6576000000016" route="route_0" /><vehicle id="vehicle_273" type="DEFAULT_VEHTYPE" depart="636.9909000000016" route="route_0" /><vehicle id="vehicle_274" type="DEFAULT_VEHTYPE" depart="639.3242000000016" route="route_2" /><vehicle id="vehicle_275" type="DEFAULT_VEHTYPE" depart="641.6575000000016" route="route_2" /><vehicle id="vehicle_276" type="DEFAULT_VEHTYPE" depart="643.9908000000016" route="route_0" /><vehicle id="vehicle_277" type="DEFAULT_VEHTYPE" depart="646.3241000000016" route="route_2" /><vehicle id="vehicle_278" type="DEFAULT_VEHTYPE" depart="648.6574000000016" route="route_0" /><vehicle id="vehicle_279" type="DEFAULT_VEHTYPE" depart="650.9907000000017" route="route_2" /><vehicle id="vehicle_280" type="DEFAULT_VEHTYPE" depart="653.3240000000017" route="route_2" /><vehicle id="vehicle_281" type="DEFAULT_VEHTYPE" depart="655.6573000000017" route="route_2" /><vehicle id="vehicle_282" type="DEFAULT_VEHTYPE" depart="657.9906000000017" route="route_2" /><vehicle id="vehicle_283" type="DEFAULT_VEHTYPE" depart="660.3239000000017" route="route_0" /><vehicle id="vehicle_284" type="DEFAULT_VEHTYPE" depart="662.6572000000017" route="route_0" /><vehicle id="vehicle_285" type="DEFAULT_VEHTYPE" depart="664.9905000000017" route="route_2" /><vehicle id="vehicle_286" type="DEFAULT_VEHTYPE" depart="667.3238000000017" route="route_0" /><vehicle id="vehicle_287" type="DEFAULT_VEHTYPE" depart="669.6571000000017" route="route_2" /><vehicle id="vehicle_288" type="DEFAULT_VEHTYPE" depart="671.9904000000017" route="route_0" /><vehicle id="vehicle_289" type="DEFAULT_VEHTYPE" depart="674.3237000000017" route="route_2" /><vehicle id="vehicle_290" type="DEFAULT_VEHTYPE" depart="676.6570000000017" route="route_2" /><vehicle id="vehicle_291" type="DEFAULT_VEHTYPE" depart="678.9903000000018" route="route_0" /><vehicle id="vehicle_292" type="DEFAULT_VEHTYPE" depart="681.3236000000018" route="route_2" /><vehicle id="vehicle_293" type="DEFAULT_VEHTYPE" depart="683.6569000000018" route="route_0" /><vehicle id="vehicle_294" type="DEFAULT_VEHTYPE" depart="685.9902000000018" route="route_2" /><vehicle id="vehicle_295" type="DEFAULT_VEHTYPE" depart="688.3235000000018" route="route_0" /><vehicle id="vehicle_296" type="DEFAULT_VEHTYPE" depart="690.6568000000018" route="route_0" /><vehicle id="vehicle_297" type="DEFAULT_VEHTYPE" depart="692.9901000000018" route="route_0" /><vehicle id="vehicle_298" type="DEFAULT_VEHTYPE" depart="695.3234000000018" route="route_2" /><vehicle id="vehicle_299" type="DEFAULT_VEHTYPE" depart="697.6567000000018" route="route_0" /></routes>