<routes>
    <route id="route_0" edges="-319929498#3 -319929498#2" />
    <route id="route_2" edges="-319929498#3 32038440#11" />
    <vehicle id="vehicle_0" type="DEFAULT_VEHTYPE" depart="0.00" route="route_0" />
<vehicle id="vehicle_1" type="DEFAULT_VEHTYPE" depart="1.16" route="route_2" /><vehicle id="vehicle_2" type="DEFAULT_VEHTYPE" depart="2.32" route="route_0" /><vehicle id="vehicle_3" type="DEFAULT_VEHTYPE" depart="3.4799999999999995" route="route_2" /><vehicle id="vehicle_4" type="DEFAULT_VEHTYPE" depart="4.64" route="route_2" /><vehicle id="vehicle_5" type="DEFAULT_VEHTYPE" depart="5.8" route="route_0" /><vehicle id="vehicle_6" type="DEFAULT_VEHTYPE" depart="6.96" route="route_0" /><vehicle id="vehicle_7" type="DEFAULT_VEHTYPE" depart="8.12" route="route_2" /><vehicle id="vehicle_8" type="DEFAULT_VEHTYPE" depart="9.28" route="route_0" /><vehicle id="vehicle_9" type="DEFAULT_VEHTYPE" depart="10.44" route="route_2" /><vehicle id="vehicle_10" type="DEFAULT_VEHTYPE" depart="11.6" route="route_2" /><vehicle id="vehicle_11" type="DEFAULT_VEHTYPE" depart="12.76" route="route_2" /><vehicle id="vehicle_12" type="DEFAULT_VEHTYPE" depart="13.92" route="route_2" /><vehicle id="vehicle_13" type="DEFAULT_VEHTYPE" depart="15.08" route="route_2" /><vehicle id="vehicle_14" type="DEFAULT_VEHTYPE" depart="16.24" route="route_2" /><vehicle id="vehicle_15" type="DEFAULT_VEHTYPE" depart="17.4" route="route_0" /><vehicle id="vehicle_16" type="DEFAULT_VEHTYPE" depart="18.56" route="route_0" /><vehicle id="vehicle_17" type="DEFAULT_VEHTYPE" depart="19.72" route="route_0" /><vehicle id="vehicle_18" type="DEFAULT_VEHTYPE" depart="20.88" route="route_2" /><vehicle id="vehicle_19" type="DEFAULT_VEHTYPE" depart="22.04" route="route_0" /><vehicle id="vehicle_20" type="DEFAULT_VEHTYPE" depart="23.2" route="route_0" /><vehicle id="vehicle_21" type="DEFAULT_VEHTYPE" depart="24.36" route="route_0" /><vehicle id="vehicle_22" type="DEFAULT_VEHTYPE" depart="25.52" route="route_0" /><vehicle id="vehicle_23" type="DEFAULT_VEHTYPE" depart="26.68" route="route_2" /><vehicle id="vehicle_24" type="DEFAULT_VEHTYPE" depart="27.84" route="route_2" /><vehicle id="vehicle_25" type="DEFAULT_VEHTYPE" depart="29.0" route="route_2" /><vehicle id="vehicle_26" type="DEFAULT_VEHTYPE" depart="30.16" route="route_0" /><vehicle id="vehicle_27" type="DEFAULT_VEHTYPE" depart="31.32" route="route_0" /><vehicle id="vehicle_28" type="DEFAULT_VEHTYPE" depart="32.48" route="route_0" /><vehicle id="vehicle_29" type="DEFAULT_VEHTYPE" depart="33.63999999999999" route="route_2" /><vehicle id="vehicle_30" type="DEFAULT_VEHTYPE" depart="34.79999999999999" route="route_0" /><vehicle id="vehicle_31" type="DEFAULT_VEHTYPE" depart="35.95999999999999" route="route_2" /><vehicle id="vehicle_32" type="DEFAULT_VEHTYPE" depart="37.11999999999998" route="route_2" /><vehicle id="vehicle_33" type="DEFAULT_VEHTYPE" depart="38.27999999999998" route="route_2" /><vehicle id="vehicle_34" type="DEFAULT_VEHTYPE" depart="39.439999999999976" route="route_0" /><vehicle id="vehicle_35" type="DEFAULT_VEHTYPE" depart="40.59999999999997" route="route_0" /><vehicle id="vehicle_36" type="DEFAULT_VEHTYPE" depart="41.75999999999997" route="route_0" /><vehicle id="vehicle_37" type="DEFAULT_VEHTYPE" depart="42.919999999999966" route="route_2" /><vehicle id="vehicle_38" type="DEFAULT_VEHTYPE" depart="44.07999999999996" route="route_0" /><vehicle id="vehicle_39" type="DEFAULT_VEHTYPE" depart="45.23999999999996" route="route_0" /><vehicle id="vehicle_40" type="DEFAULT_VEHTYPE" depart="46.399999999999956" route="route_2" /><vehicle id="vehicle_41" type="DEFAULT_VEHTYPE" depart="47.55999999999995" route="route_0" /><vehicle id="vehicle_42" type="DEFAULT_VEHTYPE" depart="48.71999999999995" route="route_0" /><vehicle id="vehicle_43" type="DEFAULT_VEHTYPE" depart="49.879999999999946" route="route_0" /><vehicle id="vehicle_44" type="DEFAULT_VEHTYPE" depart="51.03999999999994" route="route_0" /><vehicle id="vehicle_45" type="DEFAULT_VEHTYPE" depart="52.19999999999994" route="route_2" /><vehicle id="vehicle_46" type="DEFAULT_VEHTYPE" depart="53.359999999999935" route="route_0" /><vehicle id="vehicle_47" type="DEFAULT_VEHTYPE" depart="54.51999999999993" route="route_0" /><vehicle id="vehicle_48" type="DEFAULT_VEHTYPE" depart="55.67999999999993" route="route_0" /><vehicle id="vehicle_49" type="DEFAULT_VEHTYPE" depart="56.839999999999925" route="route_2" /><vehicle id="vehicle_50" type="DEFAULT_VEHTYPE" depart="57.99999999999992" route="route_2" /><vehicle id="vehicle_51" type="DEFAULT_VEHTYPE" depart="59.15999999999992" route="route_2" /><vehicle id="vehicle_52" type="DEFAULT_VEHTYPE" depart="60.319999999999915" route="route_0" /><vehicle id="vehicle_53" type="DEFAULT_VEHTYPE" depart="61.47999999999991" route="route_0" /><vehicle id="vehicle_54" type="DEFAULT_VEHTYPE" depart="62.63999999999991" route="route_2" /><vehicle id="vehicle_55" type="DEFAULT_VEHTYPE" depart="63.799999999999905" route="route_2" /><vehicle id="vehicle_56" type="DEFAULT_VEHTYPE" depart="64.95999999999991" route="route_2" /><vehicle id="vehicle_57" type="DEFAULT_VEHTYPE" depart="66.1199999999999" route="route_0" /><vehicle id="vehicle_58" type="DEFAULT_VEHTYPE" depart="67.2799999999999" route="route_2" /><vehicle id="vehicle_59" type="DEFAULT_VEHTYPE" depart="68.4399999999999" route="route_2" /><vehicle id="vehicle_60" type="DEFAULT_VEHTYPE" depart="69.5999999999999" route="route_0" /><vehicle id="vehicle_61" type="DEFAULT_VEHTYPE" depart="70.75999999999989" route="route_2" /><vehicle id="vehicle_62" type="DEFAULT_VEHTYPE" depart="71.91999999999989" route="route_0" /><vehicle id="vehicle_63" type="DEFAULT_VEHTYPE" depart="73.07999999999988" route="route_0" /><vehicle id="vehicle_64" type="DEFAULT_VEHTYPE" depart="74.23999999999988" route="route_2" /><vehicle id="vehicle_65" type="DEFAULT_VEHTYPE" depart="75.39999999999988" route="route_0" /><vehicle id="vehicle_66" type="DEFAULT_VEHTYPE" depart="76.55999999999987" route="route_0" /><vehicle id="vehicle_67" type="DEFAULT_VEHTYPE" depart="77.71999999999987" route="route_0" /><vehicle id="vehicle_68" type="DEFAULT_VEHTYPE" depart="78.87999999999987" route="route_0" /><vehicle id="vehicle_69" type="DEFAULT_VEHTYPE" depart="80.03999999999986" route="route_2" /><vehicle id="vehicle_70" type="DEFAULT_VEHTYPE" depart="81.19999999999986" route="route_2" /><vehicle id="vehicle_71" type="DEFAULT_VEHTYPE" depart="82.35999999999986" route="route_2" /><vehicle id="vehicle_72" type="DEFAULT_VEHTYPE" depart="83.51999999999985" route="route_0" /><vehicle id="vehicle_73" type="DEFAULT_VEHTYPE" depart="84.67999999999985" route="route_0" /><vehicle id="vehicle_74" type="DEFAULT_VEHTYPE" depart="85.83999999999985" route="route_0" /><vehicle id="vehicle_75" type="DEFAULT_VEHTYPE" depart="86.99999999999984" route="route_0" /><vehicle id="vehicle_76" type="DEFAULT_VEHTYPE" depart="88.15999999999984" route="route_2" /><vehicle id="vehicle_77" type="DEFAULT_VEHTYPE" depart="89.31999999999984" route="route_0" /><vehicle id="vehicle_78" type="DEFAULT_VEHTYPE" depart="90.47999999999983" route="route_0" /><vehicle id="vehicle_79" type="DEFAULT_VEHTYPE" depart="91.63999999999983" route="route_0" /><vehicle id="vehicle_80" type="DEFAULT_VEHTYPE" depart="92.79999999999983" route="route_0" /><vehicle id="vehicle_81" type="DEFAULT_VEHTYPE" depart="93.95999999999982" route="route_2" /><vehicle id="vehicle_82" type="DEFAULT_VEHTYPE" depart="95.11999999999982" route="route_2" /><vehicle id="vehicle_83" type="DEFAULT_VEHTYPE" depart="96.27999999999982" route="route_2" /><vehicle id="vehicle_84" type="DEFAULT_VEHTYPE" depart="97.43999999999981" route="route_2" /><vehicle id="vehicle_85" type="DEFAULT_VEHTYPE" depart="98.59999999999981" route="route_2" /><vehicle id="vehicle_86" type="DEFAULT_VEHTYPE" depart="99.7599999999998" route="route_2" /><vehicle id="vehicle_87" type="DEFAULT_VEHTYPE" depart="100.9199999999998" route="route_2" /><vehicle id="vehicle_88" type="DEFAULT_VEHTYPE" depart="102.0799999999998" route="route_2" /><vehicle id="vehicle_89" type="DEFAULT_VEHTYPE" depart="103.2399999999998" route="route_0" /><vehicle id="vehicle_90" type="DEFAULT_VEHTYPE" depart="104.39999999999979" route="route_0" /><vehicle id="vehicle_91" type="DEFAULT_VEHTYPE" depart="105.55999999999979" route="route_0" /><vehicle id="vehicle_92" type="DEFAULT_VEHTYPE" depart="106.71999999999979" route="route_2" /><vehicle id="vehicle_93" type="DEFAULT_VEHTYPE" depart="107.87999999999978" route="route_2" /><vehicle id="vehicle_94" type="DEFAULT_VEHTYPE" depart="109.03999999999978" route="route_2" /><vehicle id="vehicle_95" type="DEFAULT_VEHTYPE" depart="110.19999999999978" route="route_2" /><vehicle id="vehicle_96" type="DEFAULT_VEHTYPE" depart="111.35999999999977" route="route_2" /><vehicle id="vehicle_97" type="DEFAULT_VEHTYPE" depart="112.51999999999977" route="route_0" /><vehicle id="vehicle_98" type="DEFAULT_VEHTYPE" depart="113.67999999999977" route="route_2" /><vehicle id="vehicle_99" type="DEFAULT_VEHTYPE" depart="114.83999999999976" route="route_0" /><vehicle id="vehicle_100" type="DEFAULT_VEHTYPE" depart="115.99999999999976" route="route_0" /><vehicle id="vehicle_101" type="DEFAULT_VEHTYPE" depart="117.15999999999976" route="route_2" /><vehicle id="vehicle_102" type="DEFAULT_VEHTYPE" depart="118.31999999999975" route="route_2" /><vehicle id="vehicle_103" type="DEFAULT_VEHTYPE" depart="119.47999999999975" route="route_2" /><vehicle id="vehicle_104" type="DEFAULT_VEHTYPE" depart="120.63999999999974" route="route_2" /><vehicle id="vehicle_105" type="DEFAULT_VEHTYPE" depart="121.79999999999974" route="route_2" /><vehicle id="vehicle_106" type="DEFAULT_VEHTYPE" depart="122.95999999999974" route="route_0" /><vehicle id="vehicle_107" type="DEFAULT_VEHTYPE" depart="124.11999999999973" route="route_0" /><vehicle id="vehicle_108" type="DEFAULT_VEHTYPE" depart="125.27999999999973" route="route_2" /><vehicle id="vehicle_109" type="DEFAULT_VEHTYPE" depart="126.43999999999973" route="route_2" /><vehicle id="vehicle_110" type="DEFAULT_VEHTYPE" depart="127.59999999999972" route="route_2" /><vehicle id="vehicle_111" type="DEFAULT_VEHTYPE" depart="128.75999999999974" route="route_2" /><vehicle id="vehicle_112" type="DEFAULT_VEHTYPE" depart="129.91999999999973" route="route_2" /><vehicle id="vehicle_113" type="DEFAULT_VEHTYPE" depart="131.07999999999973" route="route_0" /><vehicle id="vehicle_114" type="DEFAULT_VEHTYPE" depart="132.23999999999972" route="route_0" /><vehicle id="vehicle_115" type="DEFAULT_VEHTYPE" depart="133.39999999999972" route="route_2" /><vehicle id="vehicle_116" type="DEFAULT_VEHTYPE" depart="134.55999999999972" route="route_0" /><vehicle id="vehicle_117" type="DEFAULT_VEHTYPE" depart="135.71999999999971" route="route_2" /><vehicle id="vehicle_118" type="DEFAULT_VEHTYPE" depart="136.8799999999997" route="route_0" /><vehicle id="vehicle_119" type="DEFAULT_VEHTYPE" depart="138.0399999999997" route="route_2" /><vehicle id="vehicle_120" type="DEFAULT_VEHTYPE" depart="139.1999999999997" route="route_2" /><vehicle id="vehicle_121" type="DEFAULT_VEHTYPE" depart="140.3599999999997" route="route_0" /><vehicle id="vehicle_122" type="DEFAULT_VEHTYPE" depart="141.5199999999997" route="route_0" /><vehicle id="vehicle_123" type="DEFAULT_VEHTYPE" depart="142.6799999999997" route="route_2" /><vehicle id="vehicle_124" type="DEFAULT_VEHTYPE" depart="143.8399999999997" route="route_2" /><vehicle id="vehicle_125" type="DEFAULT_VEHTYPE" depart="144.9999999999997" route="route_0" /><vehicle id="vehicle_126" type="DEFAULT_VEHTYPE" depart="146.15999999999968" route="route_0" /><vehicle id="vehicle_127" type="DEFAULT_VEHTYPE" depart="147.31999999999968" route="route_2" /><vehicle id="vehicle_128" type="DEFAULT_VEHTYPE" depart="148.47999999999968" route="route_0" /><vehicle id="vehicle_129" type="DEFAULT_VEHTYPE" depart="149.63999999999967" route="route_2" /><vehicle id="vehicle_130" type="DEFAULT_VEHTYPE" depart="150.79999999999967" route="route_0" /><vehicle id="vehicle_131" type="DEFAULT_VEHTYPE" depart="151.95999999999967" route="route_2" /><vehicle id="vehicle_132" type="DEFAULT_VEHTYPE" depart="153.11999999999966" route="route_0" /><vehicle id="vehicle_133" type="DEFAULT_VEHTYPE" depart="154.27999999999966" route="route_2" /><vehicle id="vehicle_134" type="DEFAULT_VEHTYPE" depart="155.43999999999966" route="route_0" /><vehicle id="vehicle_135" type="DEFAULT_VEHTYPE" depart="156.59999999999965" route="route_2" /><vehicle id="vehicle_136" type="DEFAULT_VEHTYPE" depart="157.75999999999965" route="route_0" /><vehicle id="vehicle_137" type="DEFAULT_VEHTYPE" depart="158.91999999999965" route="route_2" /><vehicle id="vehicle_138" type="DEFAULT_VEHTYPE" depart="160.07999999999964" route="route_0" /><vehicle id="vehicle_139" type="DEFAULT_VEHTYPE" depart="161.23999999999964" route="route_0" /><vehicle id="vehicle_140" type="DEFAULT_VEHTYPE" depart="162.39999999999964" route="route_0" /><vehicle id="vehicle_141" type="DEFAULT_VEHTYPE" depart="163.55999999999963" route="route_0" /><vehicle id="vehicle_142" type="DEFAULT_VEHTYPE" depart="164.71999999999963" route="route_2" /><vehicle id="vehicle_143" type="DEFAULT_VEHTYPE" depart="165.87999999999963" route="route_2" /><vehicle id="vehicle_144" type="DEFAULT_VEHTYPE" depart="167.03999999999962" route="route_2" /><vehicle id="vehicle_145" type="DEFAULT_VEHTYPE" depart="168.19999999999962" route="route_0" /><vehicle id="vehicle_146" type="DEFAULT_VEHTYPE" depart="169.35999999999962" route="route_0" /><vehicle id="vehicle_147" type="DEFAULT_VEHTYPE" depart="170.5199999999996" route="route_0" /><vehicle id="vehicle_148" type="DEFAULT_VEHTYPE" depart="171.6799999999996" route="route_0" /><vehicle id="vehicle_149" type="DEFAULT_VEHTYPE" depart="172.8399999999996" route="route_0" /><vehicle id="vehicle_150" type="DEFAULT_VEHTYPE" depart="173.9999999999996" route="route_2" /><vehicle id="vehicle_151" type="DEFAULT_VEHTYPE" depart="175.1599999999996" route="route_2" /><vehicle id="vehicle_152" type="DEFAULT_VEHTYPE" depart="176.3199999999996" route="route_2" /><vehicle id="vehicle_153" type="DEFAULT_VEHTYPE" depart="177.4799999999996" route="route_0" /><vehicle id="vehicle_154" type="DEFAULT_VEHTYPE" depart="178.6399999999996" route="route_0" /><vehicle id="vehicle_155" type="DEFAULT_VEHTYPE" depart="179.79999999999959" route="route_0" /><vehicle id="vehicle_156" type="DEFAULT_VEHTYPE" depart="180.95999999999958" route="route_2" /><vehicle id="vehicle_157" type="DEFAULT_VEHTYPE" depart="182.11999999999958" route="route_2" /><vehicle id="vehicle_158" type="DEFAULT_VEHTYPE" depart="183.27999999999957" route="route_0" /><vehicle id="vehicle_159" type="DEFAULT_VEHTYPE" depart="184.43999999999957" route="route_0" /><vehicle id="vehicle_160" type="DEFAULT_VEHTYPE" depart="185.59999999999957" route="route_2" /><vehicle id="vehicle_161" type="DEFAULT_VEHTYPE" depart="186.75999999999956" route="route_0" /><vehicle id="vehicle_162" type="DEFAULT_VEHTYPE" depart="187.91999999999956" route="route_0" /><vehicle id="vehicle_163" type="DEFAULT_VEHTYPE" depart="189.07999999999956" route="route_2" /><vehicle id="vehicle_164" type="DEFAULT_VEHTYPE" depart="190.23999999999955" route="route_0" /><vehicle id="vehicle_165" type="DEFAULT_VEHTYPE" depart="191.39999999999955" route="route_0" /><vehicle id="vehicle_166" type="DEFAULT_VEHTYPE" depart="192.55999999999955" route="route_0" /><vehicle id="vehicle_167" type="DEFAULT_VEHTYPE" depart="193.71999999999954" route="route_0" /><vehicle id="vehicle_168" type="DEFAULT_VEHTYPE" depart="194.87999999999954" route="route_2" /><vehicle id="vehicle_169" type="DEFAULT_VEHTYPE" depart="196.03999999999954" route="route_0" /><vehicle id="vehicle_170" type="DEFAULT_VEHTYPE" depart="197.19999999999953" route="route_0" /><vehicle id="vehicle_171" type="DEFAULT_VEHTYPE" depart="198.35999999999953" route="route_2" /><vehicle id="vehicle_172" type="DEFAULT_VEHTYPE" depart="199.51999999999953" route="route_2" /><vehicle id="vehicle_173" type="DEFAULT_VEHTYPE" depart="200.67999999999952" route="route_0" /><vehicle id="vehicle_174" type="DEFAULT_VEHTYPE" depart="201.83999999999952" route="route_0" /><vehicle id="vehicle_175" type="DEFAULT_VEHTYPE" depart="202.99999999999952" route="route_2" /><vehicle id="vehicle_176" type="DEFAULT_VEHTYPE" depart="204.1599999999995" route="route_0" /><vehicle id="vehicle_177" type="DEFAULT_VEHTYPE" depart="205.3199999999995" route="route_2" /><vehicle id="vehicle_178" type="DEFAULT_VEHTYPE" depart="206.4799999999995" route="route_2" /><vehicle id="vehicle_179" type="DEFAULT_VEHTYPE" depart="207.6399999999995" route="route_2" /><vehicle id="vehicle_180" type="DEFAULT_VEHTYPE" depart="208.7999999999995" route="route_0" /><vehicle id="vehicle_181" type="DEFAULT_VEHTYPE" depart="209.9599999999995" route="route_0" /><vehicle id="vehicle_182" type="DEFAULT_VEHTYPE" depart="211.1199999999995" route="route_2" /><vehicle id="vehicle_183" type="DEFAULT_VEHTYPE" depart="212.2799999999995" route="route_2" /><vehicle id="vehicle_184" type="DEFAULT_VEHTYPE" depart="213.4399999999995" route="route_0" /><vehicle id="vehicle_185" type="DEFAULT_VEHTYPE" depart="214.59999999999948" route="route_0" /><vehicle id="vehicle_186" type="DEFAULT_VEHTYPE" depart="215.75999999999948" route="route_0" /><vehicle id="vehicle_187" type="DEFAULT_VEHTYPE" depart="216.91999999999948" route="route_2" /><vehicle id="vehicle_188" type="DEFAULT_VEHTYPE" depart="218.07999999999947" route="route_0" /><vehicle id="vehicle_189" type="DEFAULT_VEHTYPE" depart="219.23999999999947" route="route_0" /><vehicle id="vehicle_190" type="DEFAULT_VEHTYPE" depart="220.39999999999947" route="route_2" /><vehicle id="vehicle_191" type="DEFAULT_VEHTYPE" depart="221.55999999999946" route="route_0" /><vehicle id="vehicle_192" type="DEFAULT_VEHTYPE" depart="222.71999999999946" route="route_2" /><vehicle id="vehicle_193" type="DEFAULT_VEHTYPE" depart="223.87999999999946" route="route_2" /><vehicle id="vehicle_194" type="DEFAULT_VEHTYPE" depart="225.03999999999945" route="route_2" /><vehicle id="vehicle_195" type="DEFAULT_VEHTYPE" depart="226.19999999999945" route="route_2" /><vehicle id="vehicle_196" type="DEFAULT_VEHTYPE" depart="227.35999999999945" route="route_0" /><vehicle id="vehicle_197" type="DEFAULT_VEHTYPE" depart="228.51999999999944" route="route_2" /><vehicle id="vehicle_198" type="DEFAULT_VEHTYPE" depart="229.67999999999944" route="route_0" /><vehicle id="vehicle_199" type="DEFAULT_VEHTYPE" depart="230.83999999999943" route="route_0" /><vehicle id="vehicle_200" type="DEFAULT_VEHTYPE" depart="231.99999999999943" route="route_0" /><vehicle id="vehicle_201" type="DEFAULT_VEHTYPE" depart="233.15999999999943" route="route_2" /><vehicle id="vehicle_202" type="DEFAULT_VEHTYPE" depart="234.31999999999942" route="route_2" /><vehicle id="vehicle_203" type="DEFAULT_VEHTYPE" depart="235.47999999999942" route="route_0" /><vehicle id="vehicle_204" type="DEFAULT_VEHTYPE" depart="236.63999999999942" route="route_2" /><vehicle id="vehicle_205" type="DEFAULT_VEHTYPE" depart="237.79999999999941" route="route_2" /><vehicle id="vehicle_206" type="DEFAULT_VEHTYPE" depart="238.9599999999994" route="route_0" /><vehicle id="vehicle_207" type="DEFAULT_VEHTYPE" depart="240.1199999999994" route="route_2" /><vehicle id="vehicle_208" type="DEFAULT_VEHTYPE" depart="241.2799999999994" route="route_0" /><vehicle id="vehicle_209" type="DEFAULT_VEHTYPE" depart="242.4399999999994" route="route_0" /><vehicle id="vehicle_210" type="DEFAULT_VEHTYPE" depart="243.5999999999994" route="route_0" /><vehicle id="vehicle_211" type="DEFAULT_VEHTYPE" depart="244.7599999999994" route="route_0" /><vehicle id="vehicle_212" type="DEFAULT_VEHTYPE" depart="245.9199999999994" route="route_2" /><vehicle id="vehicle_213" type="DEFAULT_VEHTYPE" depart="247.0799999999994" route="route_2" /><vehicle id="vehicle_214" type="DEFAULT_VEHTYPE" depart="248.23999999999938" route="route_2" /><vehicle id="vehicle_215" type="DEFAULT_VEHTYPE" depart="249.39999999999938" route="route_2" /><vehicle id="vehicle_216" type="DEFAULT_VEHTYPE" depart="250.55999999999938" route="route_0" /><vehicle id="vehicle_217" type="DEFAULT_VEHTYPE" depart="251.71999999999937" route="route_2" /><vehicle id="vehicle_218" type="DEFAULT_VEHTYPE" depart="252.87999999999937" route="route_0" /><vehicle id="vehicle_219" type="DEFAULT_VEHTYPE" depart="254.03999999999937" route="route_2" /><vehicle id="vehicle_220" type="DEFAULT_VEHTYPE" depart="255.19999999999936" route="route_0" /><vehicle id="vehicle_221" type="DEFAULT_VEHTYPE" depart="256.3599999999994" route="route_0" /><vehicle id="vehicle_222" type="DEFAULT_VEHTYPE" depart="257.5199999999994" route="route_2" /><vehicle id="vehicle_223" type="DEFAULT_VEHTYPE" depart="258.67999999999944" route="route_2" /><vehicle id="vehicle_224" type="DEFAULT_VEHTYPE" depart="259.83999999999946" route="route_2" /><vehicle id="vehicle_225" type="DEFAULT_VEHTYPE" depart="260.9999999999995" route="route_0" /><vehicle id="vehicle_226" type="DEFAULT_VEHTYPE" depart="262.1599999999995" route="route_2" /><vehicle id="vehicle_227" type="DEFAULT_VEHTYPE" depart="263.31999999999954" route="route_2" /><vehicle id="vehicle_228" type="DEFAULT_VEHTYPE" depart="264.47999999999956" route="route_0" /><vehicle id="vehicle_229" type="DEFAULT_VEHTYPE" depart="265.6399999999996" route="route_2" /><vehicle id="vehicle_230" type="DEFAULT_VEHTYPE" depart="266.7999999999996" route="route_2" /><vehicle id="vehicle_231" type="DEFAULT_VEHTYPE" depart="267.95999999999964" route="route_2" /><vehicle id="vehicle_232" type="DEFAULT_VEHTYPE" depart="269.11999999999966" route="route_2" /><vehicle id="vehicle_233" type="DEFAULT_VEHTYPE" depart="270.2799999999997" route="route_0" /><vehicle id="vehicle_234" type="DEFAULT_VEHTYPE" depart="271.4399999999997" route="route_0" /><vehicle id="vehicle_235" type="DEFAULT_VEHTYPE" depart="272.59999999999974" route="route_0" /><vehicle id="vehicle_236" type="DEFAULT_VEHTYPE" depart="273.75999999999976" route="route_2" /><vehicle id="vehicle_237" type="DEFAULT_VEHTYPE" depart="274.9199999999998" route="route_0" /><vehicle id="vehicle_238" type="DEFAULT_VEHTYPE" depart="276.0799999999998" route="route_0" /><vehicle id="vehicle_239" type="DEFAULT_VEHTYPE" depart="277.23999999999984" route="route_2" /><vehicle id="vehicle_240" type="DEFAULT_VEHTYPE" depart="278.39999999999986" route="route_0" /><vehicle id="vehicle_241" type="DEFAULT_VEHTYPE" depart="279.5599999999999" route="route_2" /><vehicle id="vehicle_242" type="DEFAULT_VEHTYPE" depart="280.7199999999999" route="route_2" /><vehicle id="vehicle_243" type="DEFAULT_VEHTYPE" depart="281.87999999999994" route="route_2" /><vehicle id="vehicle_244" type="DEFAULT_VEHTYPE" depart="283.03999999999996" route="route_0" /><vehicle id="vehicle_245" type="DEFAULT_VEHTYPE" depart="284.2" route="route_0" /><vehicle id="vehicle_246" type="DEFAULT_VEHTYPE" depart="285.36" route="route_0" /><vehicle id="vehicle_247" type="DEFAULT_VEHTYPE" depart="286.52000000000004" route="route_0" /><vehicle id="vehicle_248" type="DEFAULT_VEHTYPE" depart="287.68000000000006" route="route_2" /><vehicle id="vehicle_249" type="DEFAULT_VEHTYPE" depart="288.8400000000001" route="route_2" /><vehicle id="vehicle_250" type="DEFAULT_VEHTYPE" depart="290.0000000000001" route="route_2" /><vehicle id="vehicle_251" type="DEFAULT_VEHTYPE" depart="291.16000000000014" route="route_0" /><vehicle id="vehicle_252" type="DEFAULT_VEHTYPE" depart="292.32000000000016" route="route_0" /><vehicle id="vehicle_253" type="DEFAULT_VEHTYPE" depart="293.4800000000002" route="route_0" /><vehicle id="vehicle_254" type="DEFAULT_VEHTYPE" depart="294.6400000000002" route="route_0" /><vehicle id="vehicle_255" type="DEFAULT_VEHTYPE" depart="295.80000000000024" route="route_2" /><vehicle id="vehicle_256" type="DEFAULT_VEHTYPE" depart="296.96000000000026" route="route_0" /><vehicle id="vehicle_257" type="DEFAULT_VEHTYPE" depart="298.1200000000003" route="route_0" /><vehicle id="vehicle_258" type="DEFAULT_VEHTYPE" depart="299.2800000000003" route="route_2" /><vehicle id="vehicle_259" type="DEFAULT_VEHTYPE" depart="300.44000000000034" route="route_0" /><vehicle id="vehicle_260" type="DEFAULT_VEHTYPE" depart="301.60000000000036" route="route_0" /><vehicle id="vehicle_261" type="DEFAULT_VEHTYPE" depart="302.7600000000004" route="route_2" /><vehicle id="vehicle_262" type="DEFAULT_VEHTYPE" depart="303.9200000000004" route="route_2" /><vehicle id="vehicle_263" type="DEFAULT_VEHTYPE" depart="305.08000000000044" route="route_2" /><vehicle id="vehicle_264" type="DEFAULT_VEHTYPE" depart="306.24000000000046" route="route_2" /><vehicle id="vehicle_265" type="DEFAULT_VEHTYPE" depart="307.4000000000005" route="route_2" /><vehicle id="vehicle_266" type="DEFAULT_VEHTYPE" depart="308.5600000000005" route="route_0" /><vehicle id="vehicle_267" type="DEFAULT_VEHTYPE" depart="309.72000000000054" route="route_0" /><vehicle id="vehicle_268" type="DEFAULT_VEHTYPE" depart="310.88000000000056" route="route_0" /><vehicle id="vehicle_269" type="DEFAULT_VEHTYPE" depart="312.0400000000006" route="route_0" /><vehicle id="vehicle_270" type="DEFAULT_VEHTYPE" depart="313.2000000000006" route="route_0" /><vehicle id="vehicle_271" type="DEFAULT_VEHTYPE" depart="314.36000000000064" route="route_0" /><vehicle id="vehicle_272" type="DEFAULT_VEHTYPE" depart="315.52000000000066" route="route_0" /><vehicle id="vehicle_273" type="DEFAULT_VEHTYPE" depart="316.6800000000007" route="route_2" /><vehicle id="vehicle_274" type="DEFAULT_VEHTYPE" depart="317.8400000000007" route="route_2" /><vehicle id="vehicle_275" type="DEFAULT_VEHTYPE" depart="319.00000000000074" route="route_2" /><vehicle id="vehicle_276" type="DEFAULT_VEHTYPE" depart="320.16000000000076" route="route_0" /><vehicle id="vehicle_277" type="DEFAULT_VEHTYPE" depart="321.3200000000008" route="route_0" /><vehicle id="vehicle_278" type="DEFAULT_VEHTYPE" depart="322.4800000000008" route="route_0" /><vehicle id="vehicle_279" type="DEFAULT_VEHTYPE" depart="323.64000000000084" route="route_2" /><vehicle id="vehicle_280" type="DEFAULT_VEHTYPE" depart="324.80000000000086" route="route_2" /><vehicle id="vehicle_281" type="DEFAULT_VEHTYPE" depart="325.9600000000009" route="route_0" /><vehicle id="vehicle_282" type="DEFAULT_VEHTYPE" depart="327.1200000000009" route="route_0" /><vehicle id="vehicle_283" type="DEFAULT_VEHTYPE" depart="328.28000000000094" route="route_2" /><vehicle id="vehicle_284" type="DEFAULT_VEHTYPE" depart="329.44000000000096" route="route_2" /><vehicle id="vehicle_285" type="DEFAULT_VEHTYPE" depart="330.600000000001" route="route_0" /><vehicle id="vehicle_286" type="DEFAULT_VEHTYPE" depart="331.760000000001" route="route_2" /><vehicle id="vehicle_287" type="DEFAULT_VEHTYPE" depart="332.92000000000104" route="route_0" /><vehicle id="vehicle_288" type="DEFAULT_VEHTYPE" depart="334.08000000000106" route="route_2" /><vehicle id="vehicle_289" type="DEFAULT_VEHTYPE" depart="335.2400000000011" route="route_0" /><vehicle id="vehicle_290" type="DEFAULT_VEHTYPE" depart="336.4000000000011" route="route_0" /><vehicle id="vehicle_291" type="DEFAULT_VEHTYPE" depart="337.56000000000114" route="route_2" /><vehicle id="vehicle_292" type="DEFAULT_VEHTYPE" depart="338.72000000000116" route="route_2" /><vehicle id="vehicle_293" type="DEFAULT_VEHTYPE" depart="339.8800000000012" route="route_0" /><vehicle id="vehicle_294" type="DEFAULT_VEHTYPE" depart="341.0400000000012" route="route_0" /><vehicle id="vehicle_295" type="DEFAULT_VEHTYPE" depart="342.20000000000124" route="route_0" /><vehicle id="vehicle_296" type="DEFAULT_VEHTYPE" depart="343.36000000000126" route="route_0" /><vehicle id="vehicle_297" type="DEFAULT_VEHTYPE" depart="344.5200000000013" route="route_0" /><vehicle id="vehicle_298" type="DEFAULT_VEHTYPE" depart="345.6800000000013" route="route_2" /><vehicle id="vehicle_299" type="DEFAULT_VEHTYPE" depart="346.84000000000134" route="route_0" /></routes>