<routes>
    <route id="route_0" edges="-319929498#3 -319929498#2" />
    <route id="route_2" edges="-319929498#3 32038440#11" />
<vehicle id="vehicle_0" type="DEFAULT_VEHTYPE" depart="1.61" route="route_0" departSpeed="5.00" /><vehicle id="vehicle_1" type="DEFAULT_VEHTYPE" depart="3.22" route="route_0" departSpeed="5.00" /><vehicle id="vehicle_2" type="DEFAULT_VEHTYPE" depart="4.83" route="route_0" departSpeed="5.00" /><vehicle id="vehicle_3" type="DEFAULT_VEHTYPE" depart="6.44" route="route_0" departSpeed="5.00" /><vehicle id="vehicle_4" type="DEFAULT_VEHTYPE" depart="8.05" route="route_0" departSpeed="5.00" /><vehicle id="vehicle_5" type="DEFAULT_VEHTYPE" depart="9.66" route="route_0" departSpeed="5.00" /><vehicle id="vehicle_6" type="DEFAULT_VEHTYPE" depart="11.27" route="route_2" departSpeed="5.00" /><vehicle id="vehicle_7" type="DEFAULT_VEHTYPE" depart="12.879999999999999" route="route_0" departSpeed="5.00" /><vehicle id="vehicle_8" type="DEFAULT_VEHTYPE" depart="14.489999999999998" route="route_0" departSpeed="5.00" /><vehicle id="vehicle_9" type="DEFAULT_VEHTYPE" depart="16.099999999999998" route="route_0" departSpeed="5.00" /><vehicle id="vehicle_10" type="DEFAULT_VEHTYPE" depart="17.709999999999997" route="route_0" departSpeed="5.00" /><vehicle id="vehicle_11" type="DEFAULT_VEHTYPE" depart="19.319999999999997" route="route_2" departSpeed="5.00" /><vehicle id="vehicle_12" type="DEFAULT_VEHTYPE" depart="20.929999999999996" route="route_0" departSpeed="5.00" /><vehicle id="vehicle_13" type="DEFAULT_VEHTYPE" depart="22.539999999999996" route="route_0" departSpeed="5.00" /><vehicle id="vehicle_14" type="DEFAULT_VEHTYPE" depart="24.149999999999995" route="route_0" departSpeed="5.00" /><vehicle id="vehicle_15" type="DEFAULT_VEHTYPE" depart="25.759999999999994" route="route_2" departSpeed="5.00" /><vehicle id="vehicle_16" type="DEFAULT_VEHTYPE" depart="27.369999999999994" route="route_2" departSpeed="5.00" /><vehicle id="vehicle_17" type="DEFAULT_VEHTYPE" depart="28.979999999999993" route="route_0" departSpeed="5.00" /><vehicle id="vehicle_18" type="DEFAULT_VEHTYPE" depart="30.589999999999993" route="route_2" departSpeed="5.00" /><vehicle id="vehicle_19" type="DEFAULT_VEHTYPE" depart="32.199999999999996" route="route_2" departSpeed="5.00" /><vehicle id="vehicle_20" type="DEFAULT_VEHTYPE" depart="33.809999999999995" route="route_0" departSpeed="5.00" /><vehicle id="vehicle_21" type="DEFAULT_VEHTYPE" depart="35.419999999999995" route="route_0" departSpeed="5.00" /><vehicle id="vehicle_22" type="DEFAULT_VEHTYPE" depart="37.029999999999994" route="route_2" departSpeed="5.00" /><vehicle id="vehicle_23" type="DEFAULT_VEHTYPE" depart="38.63999999999999" route="route_2" departSpeed="5.00" /><vehicle id="vehicle_24" type="DEFAULT_VEHTYPE" depart="40.24999999999999" route="route_0" departSpeed="5.00" /><vehicle id="vehicle_25" type="DEFAULT_VEHTYPE" depart="41.85999999999999" route="route_2" departSpeed="5.00" /><vehicle id="vehicle_26" type="DEFAULT_VEHTYPE" depart="43.46999999999999" route="route_0" departSpeed="5.00" /><vehicle id="vehicle_27" type="DEFAULT_VEHTYPE" depart="45.07999999999999" route="route_0" departSpeed="5.00" /><vehicle id="vehicle_28" type="DEFAULT_VEHTYPE" depart="46.68999999999999" route="route_2" departSpeed="5.00" /><vehicle id="vehicle_29" type="DEFAULT_VEHTYPE" depart="48.29999999999999" route="route_2" departSpeed="5.00" /><vehicle id="vehicle_30" type="DEFAULT_VEHTYPE" depart="49.90999999999999" route="route_0" departSpeed="5.00" /><vehicle id="vehicle_31" type="DEFAULT_VEHTYPE" depart="51.51999999999999" route="route_0" departSpeed="5.00" /><vehicle id="vehicle_32" type="DEFAULT_VEHTYPE" depart="53.12999999999999" route="route_2" departSpeed="5.00" /><vehicle id="vehicle_33" type="DEFAULT_VEHTYPE" depart="54.73999999999999" route="route_0" departSpeed="5.00" /><vehicle id="vehicle_34" type="DEFAULT_VEHTYPE" depart="56.34999999999999" route="route_0" departSpeed="5.00" /><vehicle id="vehicle_35" type="DEFAULT_VEHTYPE" depart="57.95999999999999" route="route_2" departSpeed="5.00" /><vehicle id="vehicle_36" type="DEFAULT_VEHTYPE" depart="59.569999999999986" route="route_2" departSpeed="5.00" /><vehicle id="vehicle_37" type="DEFAULT_VEHTYPE" depart="61.179999999999986" route="route_0" departSpeed="5.00" /><vehicle id="vehicle_38" type="DEFAULT_VEHTYPE" depart="62.789999999999985" route="route_0" departSpeed="5.00" /><vehicle id="vehicle_39" type="DEFAULT_VEHTYPE" depart="64.39999999999999" route="route_2" departSpeed="5.00" /><vehicle id="vehicle_40" type="DEFAULT_VEHTYPE" depart="66.00999999999999" route="route_0" departSpeed="5.00" /><vehicle id="vehicle_41" type="DEFAULT_VEHTYPE" depart="67.61999999999999" route="route_2" departSpeed="5.00" /><vehicle id="vehicle_42" type="DEFAULT_VEHTYPE" depart="69.22999999999999" route="route_2" departSpeed="5.00" /><vehicle id="vehicle_43" type="DEFAULT_VEHTYPE" depart="70.83999999999999" route="route_2" departSpeed="5.00" /><vehicle id="vehicle_44" type="DEFAULT_VEHTYPE" depart="72.44999999999999" route="route_0" departSpeed="5.00" /><vehicle id="vehicle_45" type="DEFAULT_VEHTYPE" depart="74.05999999999999" route="route_0" departSpeed="5.00" /><vehicle id="vehicle_46" type="DEFAULT_VEHTYPE" depart="75.66999999999999" route="route_2" departSpeed="5.00" /><vehicle id="vehicle_47" type="DEFAULT_VEHTYPE" depart="77.27999999999999" route="route_0" departSpeed="5.00" /><vehicle id="vehicle_48" type="DEFAULT_VEHTYPE" depart="78.88999999999999" route="route_2" departSpeed="5.00" /><vehicle id="vehicle_49" type="DEFAULT_VEHTYPE" depart="80.49999999999999" route="route_0" departSpeed="5.00" /><vehicle id="vehicle_50" type="DEFAULT_VEHTYPE" depart="82.10999999999999" route="route_0" departSpeed="5.00" /><vehicle id="vehicle_51" type="DEFAULT_VEHTYPE" depart="83.71999999999998" route="route_0" departSpeed="5.00" /><vehicle id="vehicle_52" type="DEFAULT_VEHTYPE" depart="85.32999999999998" route="route_0" departSpeed="5.00" /><vehicle id="vehicle_53" type="DEFAULT_VEHTYPE" depart="86.93999999999998" route="route_0" departSpeed="5.00" /><vehicle id="vehicle_54" type="DEFAULT_VEHTYPE" depart="88.54999999999998" route="route_0" departSpeed="5.00" /><vehicle id="vehicle_55" type="DEFAULT_VEHTYPE" depart="90.15999999999998" route="route_0" departSpeed="5.00" /><vehicle id="vehicle_56" type="DEFAULT_VEHTYPE" depart="91.76999999999998" route="route_0" departSpeed="5.00" /><vehicle id="vehicle_57" type="DEFAULT_VEHTYPE" depart="93.37999999999998" route="route_0" departSpeed="5.00" /><vehicle id="vehicle_58" type="DEFAULT_VEHTYPE" depart="94.98999999999998" route="route_2" departSpeed="5.00" /><vehicle id="vehicle_59" type="DEFAULT_VEHTYPE" depart="96.59999999999998" route="route_0" departSpeed="5.00" /><vehicle id="vehicle_60" type="DEFAULT_VEHTYPE" depart="98.20999999999998" route="route_0" departSpeed="5.00" /><vehicle id="vehicle_61" type="DEFAULT_VEHTYPE" depart="99.81999999999998" route="route_0" departSpeed="5.00" /><vehicle id="vehicle_62" type="DEFAULT_VEHTYPE" depart="101.42999999999998" route="route_0" departSpeed="5.00" /><vehicle id="vehicle_63" type="DEFAULT_VEHTYPE" depart="103.03999999999998" route="route_0" departSpeed="5.00" /><vehicle id="vehicle_64" type="DEFAULT_VEHTYPE" depart="104.64999999999998" route="route_2" departSpeed="5.00" /><vehicle id="vehicle_65" type="DEFAULT_VEHTYPE" depart="106.25999999999998" route="route_2" departSpeed="5.00" /><vehicle id="vehicle_66" type="DEFAULT_VEHTYPE" depart="107.86999999999998" route="route_0" departSpeed="5.00" /><vehicle id="vehicle_67" type="DEFAULT_VEHTYPE" depart="109.47999999999998" route="route_2" departSpeed="5.00" /><vehicle id="vehicle_68" type="DEFAULT_VEHTYPE" depart="111.08999999999997" route="route_0" departSpeed="5.00" /><vehicle id="vehicle_69" type="DEFAULT_VEHTYPE" depart="112.69999999999997" route="route_2" departSpeed="5.00" /><vehicle id="vehicle_70" type="DEFAULT_VEHTYPE" depart="114.30999999999997" route="route_2" departSpeed="5.00" /><vehicle id="vehicle_71" type="DEFAULT_VEHTYPE" depart="115.91999999999997" route="route_0" departSpeed="5.00" /><vehicle id="vehicle_72" type="DEFAULT_VEHTYPE" depart="117.52999999999997" route="route_2" departSpeed="5.00" /><vehicle id="vehicle_73" type="DEFAULT_VEHTYPE" depart="119.13999999999997" route="route_2" departSpeed="5.00" /><vehicle id="vehicle_74" type="DEFAULT_VEHTYPE" depart="120.74999999999997" route="route_0" departSpeed="5.00" /><vehicle id="vehicle_75" type="DEFAULT_VEHTYPE" depart="122.35999999999997" route="route_2" departSpeed="5.00" /><vehicle id="vehicle_76" type="DEFAULT_VEHTYPE" depart="123.96999999999997" route="route_0" departSpeed="5.00" /><vehicle id="vehicle_77" type="DEFAULT_VEHTYPE" depart="125.57999999999997" route="route_0" departSpeed="5.00" /><vehicle id="vehicle_78" type="DEFAULT_VEHTYPE" depart="127.18999999999997" route="route_0" departSpeed="5.00" /><vehicle id="vehicle_79" type="DEFAULT_VEHTYPE" depart="128.79999999999998" route="route_0" departSpeed="5.00" /><vehicle id="vehicle_80" type="DEFAULT_VEHTYPE" depart="130.41" route="route_2" departSpeed="5.00" /><vehicle id="vehicle_81" type="DEFAULT_VEHTYPE" depart="132.02" route="route_0" departSpeed="5.00" /><vehicle id="vehicle_82" type="DEFAULT_VEHTYPE" depart="133.63000000000002" route="route_2" departSpeed="5.00" /><vehicle id="vehicle_83" type="DEFAULT_VEHTYPE" depart="135.24000000000004" route="route_2" departSpeed="5.00" /><vehicle id="vehicle_84" type="DEFAULT_VEHTYPE" depart="136.85000000000005" route="route_0" departSpeed="5.00" /><vehicle id="vehicle_85" type="DEFAULT_VEHTYPE" depart="138.46000000000006" route="route_0" departSpeed="5.00" /><vehicle id="vehicle_86" type="DEFAULT_VEHTYPE" depart="140.07000000000008" route="route_0" departSpeed="5.00" /><vehicle id="vehicle_87" type="DEFAULT_VEHTYPE" depart="141.6800000000001" route="route_0" departSpeed="5.00" /><vehicle id="vehicle_88" type="DEFAULT_VEHTYPE" depart="143.2900000000001" route="route_0" departSpeed="5.00" /><vehicle id="vehicle_89" type="DEFAULT_VEHTYPE" depart="144.90000000000012" route="route_0" departSpeed="5.00" /><vehicle id="vehicle_90" type="DEFAULT_VEHTYPE" depart="146.51000000000013" route="route_0" departSpeed="5.00" /><vehicle id="vehicle_91" type="DEFAULT_VEHTYPE" depart="148.12000000000015" route="route_0" departSpeed="5.00" /><vehicle id="vehicle_92" type="DEFAULT_VEHTYPE" depart="149.73000000000016" route="route_2" departSpeed="5.00" /><vehicle id="vehicle_93" type="DEFAULT_VEHTYPE" depart="151.34000000000017" route="route_0" departSpeed="5.00" /><vehicle id="vehicle_94" type="DEFAULT_VEHTYPE" depart="152.9500000000002" route="route_2" departSpeed="5.00" /><vehicle id="vehicle_95" type="DEFAULT_VEHTYPE" depart="154.5600000000002" route="route_0" departSpeed="5.00" /><vehicle id="vehicle_96" type="DEFAULT_VEHTYPE" depart="156.17000000000021" route="route_2" departSpeed="5.00" /><vehicle id="vehicle_97" type="DEFAULT_VEHTYPE" depart="157.78000000000023" route="route_2" departSpeed="5.00" /><vehicle id="vehicle_98" type="DEFAULT_VEHTYPE" depart="159.39000000000024" route="route_0" departSpeed="5.00" /><vehicle id="vehicle_99" type="DEFAULT_VEHTYPE" depart="161.00000000000026" route="route_2" departSpeed="5.00" /><vehicle id="vehicle_100" type="DEFAULT_VEHTYPE" depart="162.61000000000027" route="route_0" departSpeed="5.00" /><vehicle id="vehicle_101" type="DEFAULT_VEHTYPE" depart="164.22000000000028" route="route_0" departSpeed="5.00" /><vehicle id="vehicle_102" type="DEFAULT_VEHTYPE" depart="165.8300000000003" route="route_2" departSpeed="5.00" /><vehicle id="vehicle_103" type="DEFAULT_VEHTYPE" depart="167.4400000000003" route="route_0" departSpeed="5.00" /><vehicle id="vehicle_104" type="DEFAULT_VEHTYPE" depart="169.05000000000032" route="route_2" departSpeed="5.00" /><vehicle id="vehicle_105" type="DEFAULT_VEHTYPE" depart="170.66000000000034" route="route_2" departSpeed="5.00" /><vehicle id="vehicle_106" type="DEFAULT_VEHTYPE" depart="172.27000000000035" route="route_0" departSpeed="5.00" /><vehicle id="vehicle_107" type="DEFAULT_VEHTYPE" depart="173.88000000000036" route="route_2" departSpeed="5.00" /><vehicle id="vehicle_108" type="DEFAULT_VEHTYPE" depart="175.49000000000038" route="route_2" departSpeed="5.00" /><vehicle id="vehicle_109" type="DEFAULT_VEHTYPE" depart="177.1000000000004" route="route_2" departSpeed="5.00" /><vehicle id="vehicle_110" type="DEFAULT_VEHTYPE" depart="178.7100000000004" route="route_0" departSpeed="5.00" /><vehicle id="vehicle_111" type="DEFAULT_VEHTYPE" depart="180.32000000000042" route="route_2" departSpeed="5.00" /><vehicle id="vehicle_112" type="DEFAULT_VEHTYPE" depart="181.93000000000043" route="route_0" departSpeed="5.00" /><vehicle id="vehicle_113" type="DEFAULT_VEHTYPE" depart="183.54000000000045" route="route_2" departSpeed="5.00" /><vehicle id="vehicle_114" type="DEFAULT_VEHTYPE" depart="185.15000000000046" route="route_2" departSpeed="5.00" /><vehicle id="vehicle_115" type="DEFAULT_VEHTYPE" depart="186.76000000000047" route="route_2" departSpeed="5.00" /><vehicle id="vehicle_116" type="DEFAULT_VEHTYPE" depart="188.3700000000005" route="route_0" departSpeed="5.00" /><vehicle id="vehicle_117" type="DEFAULT_VEHTYPE" depart="189.9800000000005" route="route_2" departSpeed="5.00" /><vehicle id="vehicle_118" type="DEFAULT_VEHTYPE" depart="191.59000000000052" route="route_0" departSpeed="5.00" /><vehicle id="vehicle_119" type="DEFAULT_VEHTYPE" depart="193.20000000000053" route="route_0" departSpeed="5.00" /><vehicle id="vehicle_120" type="DEFAULT_VEHTYPE" depart="194.81000000000054" route="route_0" departSpeed="5.00" /><vehicle id="vehicle_121" type="DEFAULT_VEHTYPE" depart="196.42000000000056" route="route_2" departSpeed="5.00" /><vehicle id="vehicle_122" type="DEFAULT_VEHTYPE" depart="198.03000000000057" route="route_0" departSpeed="5.00" /><vehicle id="vehicle_123" type="DEFAULT_VEHTYPE" depart="199.64000000000058" route="route_2" departSpeed="5.00" /><vehicle id="vehicle_124" type="DEFAULT_VEHTYPE" depart="201.2500000000006" route="route_0" departSpeed="5.00" /><vehicle id="vehicle_125" type="DEFAULT_VEHTYPE" depart="202.8600000000006" route="route_0" departSpeed="5.00" /><vehicle id="vehicle_126" type="DEFAULT_VEHTYPE" depart="204.47000000000062" route="route_2" departSpeed="5.00" /><vehicle id="vehicle_127" type="DEFAULT_VEHTYPE" depart="206.08000000000064" route="route_2" departSpeed="5.00" /><vehicle id="vehicle_128" type="DEFAULT_VEHTYPE" depart="207.69000000000065" route="route_2" departSpeed="5.00" /><vehicle id="vehicle_129" type="DEFAULT_VEHTYPE" depart="209.30000000000067" route="route_0" departSpeed="5.00" /><vehicle id="vehicle_130" type="DEFAULT_VEHTYPE" depart="210.91000000000068" route="route_2" departSpeed="5.00" /><vehicle id="vehicle_131" type="DEFAULT_VEHTYPE" depart="212.5200000000007" route="route_2" departSpeed="5.00" /><vehicle id="vehicle_132" type="DEFAULT_VEHTYPE" depart="214.1300000000007" route="route_2" departSpeed="5.00" /><vehicle id="vehicle_133" type="DEFAULT_VEHTYPE" depart="215.74000000000072" route="route_0" departSpeed="5.00" /><vehicle id="vehicle_134" type="DEFAULT_VEHTYPE" depart="217.35000000000073" route="route_2" departSpeed="5.00" /><vehicle id="vehicle_135" type="DEFAULT_VEHTYPE" depart="218.96000000000075" route="route_2" departSpeed="5.00" /><vehicle id="vehicle_136" type="DEFAULT_VEHTYPE" depart="220.57000000000076" route="route_0" departSpeed="5.00" /><vehicle id="vehicle_137" type="DEFAULT_VEHTYPE" depart="222.18000000000077" route="route_0" departSpeed="5.00" /><vehicle id="vehicle_138" type="DEFAULT_VEHTYPE" depart="223.7900000000008" route="route_2" departSpeed="5.00" /><vehicle id="vehicle_139" type="DEFAULT_VEHTYPE" depart="225.4000000000008" route="route_0" departSpeed="5.00" /><vehicle id="vehicle_140" type="DEFAULT_VEHTYPE" depart="227.01000000000082" route="route_0" departSpeed="5.00" /><vehicle id="vehicle_141" type="DEFAULT_VEHTYPE" depart="228.62000000000083" route="route_2" departSpeed="5.00" /><vehicle id="vehicle_142" type="DEFAULT_VEHTYPE" depart="230.23000000000084" route="route_2" departSpeed="5.00" /><vehicle id="vehicle_143" type="DEFAULT_VEHTYPE" depart="231.84000000000086" route="route_0" departSpeed="5.00" /><vehicle id="vehicle_144" type="DEFAULT_VEHTYPE" depart="233.45000000000087" route="route_2" departSpeed="5.00" /><vehicle id="vehicle_145" type="DEFAULT_VEHTYPE" depart="235.06000000000088" route="route_2" departSpeed="5.00" /><vehicle id="vehicle_146" type="DEFAULT_VEHTYPE" depart="236.6700000000009" route="route_2" departSpeed="5.00" /><vehicle id="vehicle_147" type="DEFAULT_VEHTYPE" depart="238.2800000000009" route="route_0" departSpeed="5.00" /><vehicle id="vehicle_148" type="DEFAULT_VEHTYPE" depart="239.89000000000092" route="route_2" departSpeed="5.00" /><vehicle id="vehicle_149" type="DEFAULT_VEHTYPE" depart="241.50000000000094" route="route_2" departSpeed="5.00" /><vehicle id="vehicle_150" type="DEFAULT_VEHTYPE" depart="243.11000000000095" route="route_0" departSpeed="5.00" /><vehicle id="vehicle_151" type="DEFAULT_VEHTYPE" depart="244.72000000000097" route="route_2" departSpeed="5.00" /><vehicle id="vehicle_152" type="DEFAULT_VEHTYPE" depart="246.33000000000098" route="route_0" departSpeed="5.00" /><vehicle id="vehicle_153" type="DEFAULT_VEHTYPE" depart="247.940000000001" route="route_0" departSpeed="5.00" /><vehicle id="vehicle_154" type="DEFAULT_VEHTYPE" depart="249.550000000001" route="route_0" departSpeed="5.00" /><vehicle id="vehicle_155" type="DEFAULT_VEHTYPE" depart="251.16000000000102" route="route_2" departSpeed="5.00" /><vehicle id="vehicle_156" type="DEFAULT_VEHTYPE" depart="252.77000000000103" route="route_2" departSpeed="5.00" /><vehicle id="vehicle_157" type="DEFAULT_VEHTYPE" depart="254.38000000000105" route="route_0" departSpeed="5.00" /><vehicle id="vehicle_158" type="DEFAULT_VEHTYPE" depart="255.99000000000106" route="route_0" departSpeed="5.00" /><vehicle id="vehicle_159" type="DEFAULT_VEHTYPE" depart="257.60000000000105" route="route_0" departSpeed="5.00" /><vehicle id="vehicle_160" type="DEFAULT_VEHTYPE" depart="259.21000000000106" route="route_2" departSpeed="5.00" /><vehicle id="vehicle_161" type="DEFAULT_VEHTYPE" depart="260.8200000000011" route="route_2" departSpeed="5.00" /><vehicle id="vehicle_162" type="DEFAULT_VEHTYPE" depart="262.4300000000011" route="route_0" departSpeed="5.00" /><vehicle id="vehicle_163" type="DEFAULT_VEHTYPE" depart="264.0400000000011" route="route_2" departSpeed="5.00" /><vehicle id="vehicle_164" type="DEFAULT_VEHTYPE" depart="265.6500000000011" route="route_0" departSpeed="5.00" /><vehicle id="vehicle_165" type="DEFAULT_VEHTYPE" depart="267.2600000000011" route="route_2" departSpeed="5.00" /><vehicle id="vehicle_166" type="DEFAULT_VEHTYPE" depart="268.87000000000114" route="route_2" departSpeed="5.00" /><vehicle id="vehicle_167" type="DEFAULT_VEHTYPE" depart="270.48000000000116" route="route_0" departSpeed="5.00" /><vehicle id="vehicle_168" type="DEFAULT_VEHTYPE" depart="272.09000000000117" route="route_0" departSpeed="5.00" /><vehicle id="vehicle_169" type="DEFAULT_VEHTYPE" depart="273.7000000000012" route="route_2" departSpeed="5.00" /><vehicle id="vehicle_170" type="DEFAULT_VEHTYPE" depart="275.3100000000012" route="route_0" departSpeed="5.00" /><vehicle id="vehicle_171" type="DEFAULT_VEHTYPE" depart="276.9200000000012" route="route_2" departSpeed="5.00" /><vehicle id="vehicle_172" type="DEFAULT_VEHTYPE" depart="278.5300000000012" route="route_2" departSpeed="5.00" /><vehicle id="vehicle_173" type="DEFAULT_VEHTYPE" depart="280.14000000000124" route="route_0" departSpeed="5.00" /><vehicle id="vehicle_174" type="DEFAULT_VEHTYPE" depart="281.75000000000125" route="route_2" departSpeed="5.00" /><vehicle id="vehicle_175" type="DEFAULT_VEHTYPE" depart="283.36000000000126" route="route_0" departSpeed="5.00" /><vehicle id="vehicle_176" type="DEFAULT_VEHTYPE" depart="284.9700000000013" route="route_0" departSpeed="5.00" /><vehicle id="vehicle_177" type="DEFAULT_VEHTYPE" depart="286.5800000000013" route="route_2" departSpeed="5.00" /><vehicle id="vehicle_178" type="DEFAULT_VEHTYPE" depart="288.1900000000013" route="route_2" departSpeed="5.00" /><vehicle id="vehicle_179" type="DEFAULT_VEHTYPE" depart="289.8000000000013" route="route_2" departSpeed="5.00" /><vehicle id="vehicle_180" type="DEFAULT_VEHTYPE" depart="291.41000000000133" route="route_2" departSpeed="5.00" /><vehicle id="vehicle_181" type="DEFAULT_VEHTYPE" depart="293.02000000000135" route="route_0" departSpeed="5.00" /><vehicle id="vehicle_182" type="DEFAULT_VEHTYPE" depart="294.63000000000136" route="route_2" departSpeed="5.00" /><vehicle id="vehicle_183" type="DEFAULT_VEHTYPE" depart="296.2400000000014" route="route_2" departSpeed="5.00" /><vehicle id="vehicle_184" type="DEFAULT_VEHTYPE" depart="297.8500000000014" route="route_2" departSpeed="5.00" /><vehicle id="vehicle_185" type="DEFAULT_VEHTYPE" depart="299.4600000000014" route="route_2" departSpeed="5.00" /><vehicle id="vehicle_186" type="DEFAULT_VEHTYPE" depart="301.0700000000014" route="route_0" departSpeed="5.00" /><vehicle id="vehicle_187" type="DEFAULT_VEHTYPE" depart="302.6800000000014" route="route_2" departSpeed="5.00" /><vehicle id="vehicle_188" type="DEFAULT_VEHTYPE" depart="304.29000000000144" route="route_2" departSpeed="5.00" /><vehicle id="vehicle_189" type="DEFAULT_VEHTYPE" depart="305.90000000000146" route="route_2" departSpeed="5.00" /><vehicle id="vehicle_190" type="DEFAULT_VEHTYPE" depart="307.51000000000147" route="route_0" departSpeed="5.00" /><vehicle id="vehicle_191" type="DEFAULT_VEHTYPE" depart="309.1200000000015" route="route_2" departSpeed="5.00" /><vehicle id="vehicle_192" type="DEFAULT_VEHTYPE" depart="310.7300000000015" route="route_2" departSpeed="5.00" /><vehicle id="vehicle_193" type="DEFAULT_VEHTYPE" depart="312.3400000000015" route="route_0" departSpeed="5.00" /><vehicle id="vehicle_194" type="DEFAULT_VEHTYPE" depart="313.9500000000015" route="route_0" departSpeed="5.00" /><vehicle id="vehicle_195" type="DEFAULT_VEHTYPE" depart="315.56000000000154" route="route_0" departSpeed="5.00" /><vehicle id="vehicle_196" type="DEFAULT_VEHTYPE" depart="317.17000000000155" route="route_2" departSpeed="5.00" /><vehicle id="vehicle_197" type="DEFAULT_VEHTYPE" depart="318.78000000000156" route="route_2" departSpeed="5.00" /><vehicle id="vehicle_198" type="DEFAULT_VEHTYPE" depart="320.3900000000016" route="route_0" departSpeed="5.00" /><vehicle id="vehicle_199" type="DEFAULT_VEHTYPE" depart="322.0000000000016" route="route_0" departSpeed="5.00" /><vehicle id="vehicle_200" type="DEFAULT_VEHTYPE" depart="323.6100000000016" route="route_2" departSpeed="5.00" /><vehicle id="vehicle_201" type="DEFAULT_VEHTYPE" depart="325.2200000000016" route="route_0" departSpeed="5.00" /><vehicle id="vehicle_202" type="DEFAULT_VEHTYPE" depart="326.83000000000163" route="route_2" departSpeed="5.00" /><vehicle id="vehicle_203" type="DEFAULT_VEHTYPE" depart="328.44000000000165" route="route_2" departSpeed="5.00" /><vehicle id="vehicle_204" type="DEFAULT_VEHTYPE" depart="330.05000000000166" route="route_2" departSpeed="5.00" /><vehicle id="vehicle_205" type="DEFAULT_VEHTYPE" depart="331.6600000000017" route="route_2" departSpeed="5.00" /><vehicle id="vehicle_206" type="DEFAULT_VEHTYPE" depart="333.2700000000017" route="route_0" departSpeed="5.00" /><vehicle id="vehicle_207" type="DEFAULT_VEHTYPE" depart="334.8800000000017" route="route_0" departSpeed="5.00" /><vehicle id="vehicle_208" type="DEFAULT_VEHTYPE" depart="336.4900000000017" route="route_0" departSpeed="5.00" /><vehicle id="vehicle_209" type="DEFAULT_VEHTYPE" depart="338.1000000000017" route="route_0" departSpeed="5.00" /><vehicle id="vehicle_210" type="DEFAULT_VEHTYPE" depart="339.71000000000174" route="route_2" departSpeed="5.00" /><vehicle id="vehicle_211" type="DEFAULT_VEHTYPE" depart="341.32000000000176" route="route_0" departSpeed="5.00" /><vehicle id="vehicle_212" type="DEFAULT_VEHTYPE" depart="342.93000000000177" route="route_2" departSpeed="5.00" /><vehicle id="vehicle_213" type="DEFAULT_VEHTYPE" depart="344.5400000000018" route="route_2" departSpeed="5.00" /><vehicle id="vehicle_214" type="DEFAULT_VEHTYPE" depart="346.1500000000018" route="route_0" departSpeed="5.00" /><vehicle id="vehicle_215" type="DEFAULT_VEHTYPE" depart="347.7600000000018" route="route_2" departSpeed="5.00" /><vehicle id="vehicle_216" type="DEFAULT_VEHTYPE" depart="349.3700000000018" route="route_2" departSpeed="5.00" /><vehicle id="vehicle_217" type="DEFAULT_VEHTYPE" depart="350.98000000000184" route="route_2" departSpeed="5.00" /><vehicle id="vehicle_218" type="DEFAULT_VEHTYPE" depart="352.59000000000185" route="route_2" departSpeed="5.00" /><vehicle id="vehicle_219" type="DEFAULT_VEHTYPE" depart="354.20000000000186" route="route_0" departSpeed="5.00" /><vehicle id="vehicle_220" type="DEFAULT_VEHTYPE" depart="355.8100000000019" route="route_2" departSpeed="5.00" /><vehicle id="vehicle_221" type="DEFAULT_VEHTYPE" depart="357.4200000000019" route="route_0" departSpeed="5.00" /><vehicle id="vehicle_222" type="DEFAULT_VEHTYPE" depart="359.0300000000019" route="route_2" departSpeed="5.00" /><vehicle id="vehicle_223" type="DEFAULT_VEHTYPE" depart="360.6400000000019" route="route_2" departSpeed="5.00" /><vehicle id="vehicle_224" type="DEFAULT_VEHTYPE" depart="362.25000000000193" route="route_0" departSpeed="5.00" /><vehicle id="vehicle_225" type="DEFAULT_VEHTYPE" depart="363.86000000000195" route="route_0" departSpeed="5.00" /><vehicle id="vehicle_226" type="DEFAULT_VEHTYPE" depart="365.47000000000196" route="route_2" departSpeed="5.00" /><vehicle id="vehicle_227" type="DEFAULT_VEHTYPE" depart="367.080000000002" route="route_0" departSpeed="5.00" /><vehicle id="vehicle_228" type="DEFAULT_VEHTYPE" depart="368.690000000002" route="route_2" departSpeed="5.00" /><vehicle id="vehicle_229" type="DEFAULT_VEHTYPE" depart="370.300000000002" route="route_0" departSpeed="5.00" /><vehicle id="vehicle_230" type="DEFAULT_VEHTYPE" depart="371.910000000002" route="route_0" departSpeed="5.00" /><vehicle id="vehicle_231" type="DEFAULT_VEHTYPE" depart="373.520000000002" route="route_0" departSpeed="5.00" /><vehicle id="vehicle_232" type="DEFAULT_VEHTYPE" depart="375.13000000000204" route="route_0" departSpeed="5.00" /><vehicle id="vehicle_233" type="DEFAULT_VEHTYPE" depart="376.74000000000206" route="route_2" departSpeed="5.00" /><vehicle id="vehicle_234" type="DEFAULT_VEHTYPE" depart="378.35000000000207" route="route_0" departSpeed="5.00" /><vehicle id="vehicle_235" type="DEFAULT_VEHTYPE" depart="379.9600000000021" route="route_0" departSpeed="5.00" /><vehicle id="vehicle_236" type="DEFAULT_VEHTYPE" depart="381.5700000000021" route="route_0" departSpeed="5.00" /><vehicle id="vehicle_237" type="DEFAULT_VEHTYPE" depart="383.1800000000021" route="route_0" departSpeed="5.00" /><vehicle id="vehicle_238" type="DEFAULT_VEHTYPE" depart="384.7900000000021" route="route_2" departSpeed="5.00" /><vehicle id="vehicle_239" type="DEFAULT_VEHTYPE" depart="386.40000000000214" route="route_2" departSpeed="5.00" /><vehicle id="vehicle_240" type="DEFAULT_VEHTYPE" depart="388.01000000000215" route="route_0" departSpeed="5.00" /><vehicle id="vehicle_241" type="DEFAULT_VEHTYPE" depart="389.62000000000216" route="route_0" departSpeed="5.00" /><vehicle id="vehicle_242" type="DEFAULT_VEHTYPE" depart="391.2300000000022" route="route_2" departSpeed="5.00" /><vehicle id="vehicle_243" type="DEFAULT_VEHTYPE" depart="392.8400000000022" route="route_0" departSpeed="5.00" /><vehicle id="vehicle_244" type="DEFAULT_VEHTYPE" depart="394.4500000000022" route="route_2" departSpeed="5.00" /><vehicle id="vehicle_245" type="DEFAULT_VEHTYPE" depart="396.0600000000022" route="route_2" departSpeed="5.00" /><vehicle id="vehicle_246" type="DEFAULT_VEHTYPE" depart="397.67000000000223" route="route_0" departSpeed="5.00" /><vehicle id="vehicle_247" type="DEFAULT_VEHTYPE" depart="399.28000000000225" route="route_0" departSpeed="5.00" /><vehicle id="vehicle_248" type="DEFAULT_VEHTYPE" depart="400.89000000000226" route="route_0" departSpeed="5.00" /><vehicle id="vehicle_249" type="DEFAULT_VEHTYPE" depart="402.5000000000023" route="route_0" departSpeed="5.00" /><vehicle id="vehicle_250" type="DEFAULT_VEHTYPE" depart="404.1100000000023" route="route_2" departSpeed="5.00" /><vehicle id="vehicle_251" type="DEFAULT_VEHTYPE" depart="405.7200000000023" route="route_2" departSpeed="5.00" /><vehicle id="vehicle_252" type="DEFAULT_VEHTYPE" depart="407.3300000000023" route="route_2" departSpeed="5.00" /><vehicle id="vehicle_253" type="DEFAULT_VEHTYPE" depart="408.9400000000023" route="route_2" departSpeed="5.00" /><vehicle id="vehicle_254" type="DEFAULT_VEHTYPE" depart="410.55000000000234" route="route_2" departSpeed="5.00" /><vehicle id="vehicle_255" type="DEFAULT_VEHTYPE" depart="412.16000000000236" route="route_0" departSpeed="5.00" /><vehicle id="vehicle_256" type="DEFAULT_VEHTYPE" depart="413.77000000000237" route="route_0" departSpeed="5.00" /><vehicle id="vehicle_257" type="DEFAULT_VEHTYPE" depart="415.3800000000024" route="route_0" departSpeed="5.00" /><vehicle id="vehicle_258" type="DEFAULT_VEHTYPE" depart="416.9900000000024" route="route_0" departSpeed="5.00" /><vehicle id="vehicle_259" type="DEFAULT_VEHTYPE" depart="418.6000000000024" route="route_2" departSpeed="5.00" /><vehicle id="vehicle_260" type="DEFAULT_VEHTYPE" depart="420.2100000000024" route="route_0" departSpeed="5.00" /><vehicle id="vehicle_261" type="DEFAULT_VEHTYPE" depart="421.82000000000244" route="route_0" departSpeed="5.00" /><vehicle id="vehicle_262" type="DEFAULT_VEHTYPE" depart="423.43000000000245" route="route_2" departSpeed="5.00" /><vehicle id="vehicle_263" type="DEFAULT_VEHTYPE" depart="425.04000000000246" route="route_0" departSpeed="5.00" /><vehicle id="vehicle_264" type="DEFAULT_VEHTYPE" depart="426.6500000000025" route="route_2" departSpeed="5.00" /><vehicle id="veh