<routes>
    <route id="route_0" edges="-319929498#3 -319929498#2" />
    <route id="route_2" edges="-319929498#3 32038440#11" />
    <vehicle id="vehicle_0" type="DEFAULT_VEHTYPE" depart="0.00" route="route_0" />
<vehicle id="vehicle_1" type="DEFAULT_VEHTYPE" depart="1.91" route="route_0" /><vehicle id="vehicle_2" type="DEFAULT_VEHTYPE" depart="3.82" route="route_2" /><vehicle id="vehicle_3" type="DEFAULT_VEHTYPE" depart="5.7299999999999995" route="route_0" /><vehicle id="vehicle_4" type="DEFAULT_VEHTYPE" depart="7.64" route="route_2" /><vehicle id="vehicle_5" type="DEFAULT_VEHTYPE" depart="9.549999999999999" route="route_0" /><vehicle id="vehicle_6" type="DEFAULT_VEHTYPE" depart="11.459999999999999" route="route_2" /><vehicle id="vehicle_7" type="DEFAULT_VEHTYPE" depart="13.37" route="route_2" /><vehicle id="vehicle_8" type="DEFAULT_VEHTYPE" depart="15.28" route="route_2" /><vehicle id="vehicle_9" type="DEFAULT_VEHTYPE" depart="17.189999999999998" route="route_2" /><vehicle id="vehicle_10" type="DEFAULT_VEHTYPE" depart="19.099999999999998" route="route_2" /><vehicle id="vehicle_11" type="DEFAULT_VEHTYPE" depart="21.009999999999998" route="route_0" /><vehicle id="vehicle_12" type="DEFAULT_VEHTYPE" depart="22.919999999999998" route="route_2" /><vehicle id="vehicle_13" type="DEFAULT_VEHTYPE" depart="24.83" route="route_2" /><vehicle id="vehicle_14" type="DEFAULT_VEHTYPE" depart="26.74" route="route_0" /><vehicle id="vehicle_15" type="DEFAULT_VEHTYPE" depart="28.65" route="route_0" /><vehicle id="vehicle_16" type="DEFAULT_VEHTYPE" depart="30.56" route="route_2" /><vehicle id="vehicle_17" type="DEFAULT_VEHTYPE" depart="32.47" route="route_0" /><vehicle id="vehicle_18" type="DEFAULT_VEHTYPE" depart="34.379999999999995" route="route_2" /><vehicle id="vehicle_19" type="DEFAULT_VEHTYPE" depart="36.28999999999999" route="route_0" /><vehicle id="vehicle_20" type="DEFAULT_VEHTYPE" depart="38.19999999999999" route="route_2" /><vehicle id="vehicle_21" type="DEFAULT_VEHTYPE" depart="40.109999999999985" route="route_0" /><vehicle id="vehicle_22" type="DEFAULT_VEHTYPE" depart="42.01999999999998" route="route_2" /><vehicle id="vehicle_23" type="DEFAULT_VEHTYPE" depart="43.92999999999998" route="route_0" /><vehicle id="vehicle_24" type="DEFAULT_VEHTYPE" depart="45.839999999999975" route="route_2" /><vehicle id="vehicle_25" type="DEFAULT_VEHTYPE" depart="47.74999999999997" route="route_0" /><vehicle id="vehicle_26" type="DEFAULT_VEHTYPE" depart="49.65999999999997" route="route_2" /><vehicle id="vehicle_27" type="DEFAULT_VEHTYPE" depart="51.569999999999965" route="route_0" /><vehicle id="vehicle_28" type="DEFAULT_VEHTYPE" depart="53.47999999999996" route="route_0" /><vehicle id="vehicle_29" type="DEFAULT_VEHTYPE" depart="55.38999999999996" route="route_2" /><vehicle id="vehicle_30" type="DEFAULT_VEHTYPE" depart="57.299999999999955" route="route_2" /><vehicle id="vehicle_31" type="DEFAULT_VEHTYPE" depart="59.20999999999995" route="route_0" /><vehicle id="vehicle_32" type="DEFAULT_VEHTYPE" depart="61.11999999999995" route="route_0" /><vehicle id="vehicle_33" type="DEFAULT_VEHTYPE" depart="63.029999999999944" route="route_0" /><vehicle id="vehicle_34" type="DEFAULT_VEHTYPE" depart="64.93999999999994" route="route_0" /><vehicle id="vehicle_35" type="DEFAULT_VEHTYPE" depart="66.84999999999994" route="route_0" /><vehicle id="vehicle_36" type="DEFAULT_VEHTYPE" depart="68.75999999999993" route="route_0" /><vehicle id="vehicle_37" type="DEFAULT_VEHTYPE" depart="70.66999999999993" route="route_2" /><vehicle id="vehicle_38" type="DEFAULT_VEHTYPE" depart="72.57999999999993" route="route_2" /><vehicle id="vehicle_39" type="DEFAULT_VEHTYPE" depart="74.48999999999992" route="route_0" /><vehicle id="vehicle_40" type="DEFAULT_VEHTYPE" depart="76.39999999999992" route="route_2" /><vehicle id="vehicle_41" type="DEFAULT_VEHTYPE" depart="78.30999999999992" route="route_2" /><vehicle id="vehicle_42" type="DEFAULT_VEHTYPE" depart="80.21999999999991" route="route_0" /><vehicle id="vehicle_43" type="DEFAULT_VEHTYPE" depart="82.12999999999991" route="route_2" /><vehicle id="vehicle_44" type="DEFAULT_VEHTYPE" depart="84.0399999999999" route="route_2" /><vehicle id="vehicle_45" type="DEFAULT_VEHTYPE" depart="85.9499999999999" route="route_2" /><vehicle id="vehicle_46" type="DEFAULT_VEHTYPE" depart="87.8599999999999" route="route_0" /><vehicle id="vehicle_47" type="DEFAULT_VEHTYPE" depart="89.7699999999999" route="route_0" /><vehicle id="vehicle_48" type="DEFAULT_VEHTYPE" depart="91.6799999999999" route="route_0" /><vehicle id="vehicle_49" type="DEFAULT_VEHTYPE" depart="93.58999999999989" route="route_0" /><vehicle id="vehicle_50" type="DEFAULT_VEHTYPE" depart="95.49999999999989" route="route_0" /><vehicle id="vehicle_51" type="DEFAULT_VEHTYPE" depart="97.40999999999988" route="route_2" /><vehicle id="vehicle_52" type="DEFAULT_VEHTYPE" depart="99.31999999999988" route="route_2" /><vehicle id="vehicle_53" type="DEFAULT_VEHTYPE" depart="101.22999999999988" route="route_0" /><vehicle id="vehicle_54" type="DEFAULT_VEHTYPE" depart="103.13999999999987" route="route_0" /><vehicle id="vehicle_55" type="DEFAULT_VEHTYPE" depart="105.04999999999987" route="route_2" /><vehicle id="vehicle_56" type="DEFAULT_VEHTYPE" depart="106.95999999999987" route="route_2" /><vehicle id="vehicle_57" type="DEFAULT_VEHTYPE" depart="108.86999999999986" route="route_2" /><vehicle id="vehicle_58" type="DEFAULT_VEHTYPE" depart="110.77999999999986" route="route_2" /><vehicle id="vehicle_59" type="DEFAULT_VEHTYPE" depart="112.68999999999986" route="route_0" /><vehicle id="vehicle_60" type="DEFAULT_VEHTYPE" depart="114.59999999999985" route="route_2" /><vehicle id="vehicle_61" type="DEFAULT_VEHTYPE" depart="116.50999999999985" route="route_2" /><vehicle id="vehicle_62" type="DEFAULT_VEHTYPE" depart="118.41999999999985" route="route_2" /><vehicle id="vehicle_63" type="DEFAULT_VEHTYPE" depart="120.32999999999984" route="route_2" /><vehicle id="vehicle_64" type="DEFAULT_VEHTYPE" depart="122.23999999999984" route="route_0" /><vehicle id="vehicle_65" type="DEFAULT_VEHTYPE" depart="124.14999999999984" route="route_0" /><vehicle id="vehicle_66" type="DEFAULT_VEHTYPE" depart="126.05999999999983" route="route_0" /><vehicle id="vehicle_67" type="DEFAULT_VEHTYPE" depart="127.96999999999983" route="route_0" /><vehicle id="vehicle_68" type="DEFAULT_VEHTYPE" depart="129.87999999999982" route="route_0" /><vehicle id="vehicle_69" type="DEFAULT_VEHTYPE" depart="131.78999999999982" route="route_0" /><vehicle id="vehicle_70" type="DEFAULT_VEHTYPE" depart="133.69999999999982" route="route_2" /><vehicle id="vehicle_71" type="DEFAULT_VEHTYPE" depart="135.60999999999981" route="route_0" /><vehicle id="vehicle_72" type="DEFAULT_VEHTYPE" depart="137.5199999999998" route="route_0" /><vehicle id="vehicle_73" type="DEFAULT_VEHTYPE" depart="139.4299999999998" route="route_2" /><vehicle id="vehicle_74" type="DEFAULT_VEHTYPE" depart="141.3399999999998" route="route_2" /><vehicle id="vehicle_75" type="DEFAULT_VEHTYPE" depart="143.2499999999998" route="route_0" /><vehicle id="vehicle_76" type="DEFAULT_VEHTYPE" depart="145.1599999999998" route="route_2" /><vehicle id="vehicle_77" type="DEFAULT_VEHTYPE" depart="147.0699999999998" route="route_2" /><vehicle id="vehicle_78" type="DEFAULT_VEHTYPE" depart="148.9799999999998" route="route_0" /><vehicle id="vehicle_79" type="DEFAULT_VEHTYPE" depart="150.8899999999998" route="route_2" /><vehicle id="vehicle_80" type="DEFAULT_VEHTYPE" depart="152.79999999999978" route="route_0" /><vehicle id="vehicle_81" type="DEFAULT_VEHTYPE" depart="154.70999999999978" route="route_0" /><vehicle id="vehicle_82" type="DEFAULT_VEHTYPE" depart="156.61999999999978" route="route_0" /><vehicle id="vehicle_83" type="DEFAULT_VEHTYPE" depart="158.52999999999977" route="route_0" /><vehicle id="vehicle_84" type="DEFAULT_VEHTYPE" depart="160.43999999999977" route="route_0" /><vehicle id="vehicle_85" type="DEFAULT_VEHTYPE" depart="162.34999999999977" route="route_2" /><vehicle id="vehicle_86" type="DEFAULT_VEHTYPE" depart="164.25999999999976" route="route_2" /><vehicle id="vehicle_87" type="DEFAULT_VEHTYPE" depart="166.16999999999976" route="route_2" /><vehicle id="vehicle_88" type="DEFAULT_VEHTYPE" depart="168.07999999999976" route="route_2" /><vehicle id="vehicle_89" type="DEFAULT_VEHTYPE" depart="169.98999999999975" route="route_0" /><vehicle id="vehicle_90" type="DEFAULT_VEHTYPE" depart="171.89999999999975" route="route_0" /><vehicle id="vehicle_91" type="DEFAULT_VEHTYPE" depart="173.80999999999975" route="route_0" /><vehicle id="vehicle_92" type="DEFAULT_VEHTYPE" depart="175.71999999999974" route="route_0" /><vehicle id="vehicle_93" type="DEFAULT_VEHTYPE" depart="177.62999999999974" route="route_0" /><vehicle id="vehicle_94" type="DEFAULT_VEHTYPE" depart="179.53999999999974" route="route_0" /><vehicle id="vehicle_95" type="DEFAULT_VEHTYPE" depart="181.44999999999973" route="route_0" /><vehicle id="vehicle_96" type="DEFAULT_VEHTYPE" depart="183.35999999999973" route="route_0" /><vehicle id="vehicle_97" type="DEFAULT_VEHTYPE" depart="185.26999999999973" route="route_2" /><vehicle id="vehicle_98" type="DEFAULT_VEHTYPE" depart="187.17999999999972" route="route_0" /><vehicle id="vehicle_99" type="DEFAULT_VEHTYPE" depart="189.08999999999972" route="route_0" /><vehicle id="vehicle_100" type="DEFAULT_VEHTYPE" depart="190.99999999999972" route="route_2" /><vehicle id="vehicle_101" type="DEFAULT_VEHTYPE" depart="192.9099999999997" route="route_2" /><vehicle id="vehicle_102" type="DEFAULT_VEHTYPE" depart="194.8199999999997" route="route_2" /><vehicle id="vehicle_103" type="DEFAULT_VEHTYPE" depart="196.7299999999997" route="route_0" /><vehicle id="vehicle_104" type="DEFAULT_VEHTYPE" depart="198.6399999999997" route="route_0" /><vehicle id="vehicle_105" type="DEFAULT_VEHTYPE" depart="200.5499999999997" route="route_2" /><vehicle id="vehicle_106" type="DEFAULT_VEHTYPE" depart="202.4599999999997" route="route_0" /><vehicle id="vehicle_107" type="DEFAULT_VEHTYPE" depart="204.3699999999997" route="route_0" /><vehicle id="vehicle_108" type="DEFAULT_VEHTYPE" depart="206.2799999999997" route="route_0" /><vehicle id="vehicle_109" type="DEFAULT_VEHTYPE" depart="208.18999999999969" route="route_0" /><vehicle id="vehicle_110" type="DEFAULT_VEHTYPE" depart="210.09999999999968" route="route_0" /><vehicle id="vehicle_111" type="DEFAULT_VEHTYPE" depart="212.00999999999968" route="route_2" /><vehicle id="vehicle_112" type="DEFAULT_VEHTYPE" depart="213.91999999999967" route="route_0" /><vehicle id="vehicle_113" type="DEFAULT_VEHTYPE" depart="215.82999999999967" route="route_0" /><vehicle id="vehicle_114" type="DEFAULT_VEHTYPE" depart="217.73999999999967" route="route_2" /><vehicle id="vehicle_115" type="DEFAULT_VEHTYPE" depart="219.64999999999966" route="route_0" /><vehicle id="vehicle_116" type="DEFAULT_VEHTYPE" depart="221.55999999999966" route="route_0" /><vehicle id="vehicle_117" type="DEFAULT_VEHTYPE" depart="223.46999999999966" route="route_0" /><vehicle id="vehicle_118" type="DEFAULT_VEHTYPE" depart="225.37999999999965" route="route_2" /><vehicle id="vehicle_119" type="DEFAULT_VEHTYPE" depart="227.28999999999965" route="route_2" /><vehicle id="vehicle_120" type="DEFAULT_VEHTYPE" depart="229.19999999999965" route="route_0" /><vehicle id="vehicle_121" type="DEFAULT_VEHTYPE" depart="231.10999999999964" route="route_2" /><vehicle id="vehicle_122" type="DEFAULT_VEHTYPE" depart="233.01999999999964" route="route_0" /><vehicle id="vehicle_123" type="DEFAULT_VEHTYPE" depart="234.92999999999964" route="route_2" /><vehicle id="vehicle_124" type="DEFAULT_VEHTYPE" depart="236.83999999999963" route="route_0" /><vehicle id="vehicle_125" type="DEFAULT_VEHTYPE" depart="238.74999999999963" route="route_0" /><vehicle id="vehicle_126" type="DEFAULT_VEHTYPE" depart="240.65999999999963" route="route_2" /><vehicle id="vehicle_127" type="DEFAULT_VEHTYPE" depart="242.56999999999962" route="route_0" /><vehicle id="vehicle_128" type="DEFAULT_VEHTYPE" depart="244.47999999999962" route="route_2" /><vehicle id="vehicle_129" type="DEFAULT_VEHTYPE" depart="246.38999999999962" route="route_0" /><vehicle id="vehicle_130" type="DEFAULT_VEHTYPE" depart="248.2999999999996" route="route_0" /><vehicle id="vehicle_131" type="DEFAULT_VEHTYPE" depart="250.2099999999996" route="route_2" /><vehicle id="vehicle_132" type="DEFAULT_VEHTYPE" depart="252.1199999999996" route="route_2" /><vehicle id="vehicle_133" type="DEFAULT_VEHTYPE" depart="254.0299999999996" route="route_2" /><vehicle id="vehicle_134" type="DEFAULT_VEHTYPE" depart="255.9399999999996" route="route_0" /><vehicle id="vehicle_135" type="DEFAULT_VEHTYPE" depart="257.8499999999996" route="route_2" /><vehicle id="vehicle_136" type="DEFAULT_VEHTYPE" depart="259.75999999999965" route="route_2" /><vehicle id="vehicle_137" type="DEFAULT_VEHTYPE" depart="261.6699999999997" route="route_2" /><vehicle id="vehicle_138" type="DEFAULT_VEHTYPE" depart="263.5799999999997" route="route_2" /><vehicle id="vehicle_139" type="DEFAULT_VEHTYPE" depart="265.4899999999997" route="route_0" /><vehicle id="vehicle_140" type="DEFAULT_VEHTYPE" depart="267.39999999999975" route="route_0" /><vehicle id="vehicle_141" type="DEFAULT_VEHTYPE" depart="269.3099999999998" route="route_2" /><vehicle id="vehicle_142" type="DEFAULT_VEHTYPE" depart="271.2199999999998" route="route_0" /><vehicle id="vehicle_143" type="DEFAULT_VEHTYPE" depart="273.1299999999998" route="route_2" /><vehicle id="vehicle_144" type="DEFAULT_VEHTYPE" depart="275.03999999999985" route="route_2" /><vehicle id="vehicle_145" type="DEFAULT_VEHTYPE" depart="276.9499999999999" route="route_0" /><vehicle id="vehicle_146" type="DEFAULT_VEHTYPE" depart="278.8599999999999" route="route_0" /><vehicle id="vehicle_147" type="DEFAULT_VEHTYPE" depart="280.7699999999999" route="route_0" /><vehicle id="vehicle_148" type="DEFAULT_VEHTYPE" depart="282.67999999999995" route="route_2" /><vehicle id="vehicle_149" type="DEFAULT_VEHTYPE" depart="284.59" route="route_2" /><vehicle id="vehicle_150" type="DEFAULT_VEHTYPE" depart="286.5" route="route_2" /><vehicle id="vehicle_151" type="DEFAULT_VEHTYPE" depart="288.41" route="route_0" /><vehicle id="vehicle_152" type="DEFAULT_VEHTYPE" depart="290.32000000000005" route="route_0" /><vehicle id="vehicle_153" type="DEFAULT_VEHTYPE" depart="292.2300000000001" route="route_0" /><vehicle id="vehicle_154" type="DEFAULT_VEHTYPE" depart="294.1400000000001" route="route_0" /><vehicle id="vehicle_155" type="DEFAULT_VEHTYPE" depart="296.0500000000001" route="route_2" /><vehicle id="vehicle_156" type="DEFAULT_VEHTYPE" depart="297.96000000000015" route="route_2" /><vehicle id="vehicle_157" type="DEFAULT_VEHTYPE" depart="299.8700000000002" route="route_0" /><vehicle id="vehicle_158" type="DEFAULT_VEHTYPE" depart="301.7800000000002" route="route_2" /><vehicle id="vehicle_159" type="DEFAULT_VEHTYPE" depart="303.6900000000002" route="route_2" /><vehicle id="vehicle_160" type="DEFAULT_VEHTYPE" depart="305.60000000000025" route="route_0" /><vehicle id="vehicle_161" type="DEFAULT_VEHTYPE" depart="307.5100000000003" route="route_2" /><vehicle id="vehicle_162" type="DEFAULT_VEHTYPE" depart="309.4200000000003" route="route_2" /><vehicle id="vehicle_163" type="DEFAULT_VEHTYPE" depart="311.3300000000003" route="route_0" /><vehicle id="vehicle_164" type="DEFAULT_VEHTYPE" depart="313.24000000000035" route="route_2" /><vehicle id="vehicle_165" type="DEFAULT_VEHTYPE" depart="315.1500000000004" route="route_2" /><vehicle id="vehicle_166" type="DEFAULT_VEHTYPE" depart="317.0600000000004" route="route_0" /><vehicle id="vehicle_167" type="DEFAULT_VEHTYPE" depart="318.9700000000004" route="route_2" /><vehicle id="vehicle_168" type="DEFAULT_VEHTYPE" depart="320.88000000000045" route="route_2" /><vehicle id="vehicle_169" type="DEFAULT_VEHTYPE" depart="322.7900000000005" route="route_2" /><vehicle id="vehicle_170" type="DEFAULT_VEHTYPE" depart="324.7000000000005" route="route_2" /><vehicle id="vehicle_171" type="DEFAULT_VEHTYPE" depart="326.6100000000005" route="route_0" /><vehicle id="vehicle_172" type="DEFAULT_VEHTYPE" depart="328.52000000000055" route="route_0" /><vehicle id="vehicle_173" type="DEFAULT_VEHTYPE" depart="330.4300000000006" route="route_0" /><vehicle id="vehicle_174" type="DEFAULT_VEHTYPE" depart="332.3400000000006" route="route_2" /><vehicle id="vehicle_175" type="DEFAULT_VEHTYPE" depart="334.2500000000006" route="route_0" /><vehicle id="vehicle_176" type="DEFAULT_VEHTYPE" depart="336.16000000000065" route="route_2" /><vehicle id="vehicle_177" type="DEFAULT_VEHTYPE" depart="338.0700000000007" route="route_0" /><vehicle id="vehicle_178" type="DEFAULT_VEHTYPE" depart="339.9800000000007" route="route_0" /><vehicle id="vehicle_179" type="DEFAULT_VEHTYPE" depart="341.8900000000007" route="route_2" /><vehicle id="vehicle_180" type="DEFAULT_VEHTYPE" depart="343.80000000000075" route="route_2" /><vehicle id="vehicle_181" type="DEFAULT_VEHTYPE" depart="345.7100000000008" route="route_0" /><vehicle id="vehicle_182" type="DEFAULT_VEHTYPE" depart="347.6200000000008" route="route_2" /><vehicle id="vehicle_183" type="DEFAULT_VEHTYPE" depart="349.5300000000008" route="route_2" /><vehicle id="vehicle_184" type="DEFAULT_VEHTYPE" depart="351.44000000000085" route="route_2" /><vehicle id="vehicle_185" type="DEFAULT_VEHTYPE" depart="353.3500000000009" route="route_2" /><vehicle id="vehicle_186" type="DEFAULT_VEHTYPE" depart="355.2600000000009" route="route_0" /><vehicle id="vehicle_187" type="DEFAULT_VEHTYPE" depart="357.1700000000009" route="route_2" /><vehicle id="vehicle_188" type="DEFAULT_VEHTYPE" depart="359.08000000000095" route="route_0" /><vehicle id="vehicle_189" type="DEFAULT_VEHTYPE" depart="360.990000000001" route="route_0" /><vehicle id="vehicle_190" type="DEFAULT_VEHTYPE" depart="362.900000000001" route="route_2" /><vehicle id="vehicle_191" type="DEFAULT_VEHTYPE" depart="364.810000000001" route="route_0" /><vehicle id="vehicle_192" type="DEFAULT_VEHTYPE" depart="366.72000000000105" route="route_0" /><vehicle id="vehicle_193" type="DEFAULT_VEHTYPE" depart="368.6300000000011" route="route_2" /><vehicle id="vehicle_194" type="DEFAULT_VEHTYPE" depart="370.5400000000011" route="route_2" /><vehicle id="vehicle_195" type="DEFAULT_VEHTYPE" depart="372.4500000000011" route="route_0" /><vehicle id="vehicle_196" type="DEFAULT_VEHTYPE" depart="374.36000000000115" route="route_0" /><vehicle id="vehicle_197" type="DEFAULT_VEHTYPE" depart="376.2700000000012" route="route_0" /><vehicle id="vehicle_198" type="DEFAULT_VEHTYPE" depart="378.1800000000012" route="route_0" /><vehicle id="vehicle_199" type="DEFAULT_VEHTYPE" depart="380.0900000000012" route="route_2" /><vehicle id="vehicle_200" type="DEFAULT_VEHTYPE" depart="382.00000000000125" route="route_0" /><vehicle id="vehicle_201" type="DEFAULT_VEHTYPE" depart="383.9100000000013" route="route_0" /><vehicle id="vehicle_202" type="DEFAULT_VEHTYPE" depart="385.8200000000013" route="route_2" /><vehicle id="vehicle_203" type="DEFAULT_VEHTYPE" depart="387.7300000000013" route="route_0" /><vehicle id="vehicle_204" type="DEFAULT_VEHTYPE" depart="389.64000000000135" route="route_0" /><vehicle id="vehicle_205" type="DEFAULT_VEHTYPE" depart="391.5500000000014" route="route_0" /><vehicle id="vehicle_206" type="DEFAULT_VEHTYPE" depart="393.4600000000014" route="route_2" /><vehicle id="vehicle_207" type="DEFAULT_VEHTYPE" depart="395.3700000000014" route="route_2" /><vehicle id="vehicle_208" type="DEFAULT_VEHTYPE" depart="397.28000000000145" route="route_0" /><vehicle id="vehicle_209" type="DEFAULT_VEHTYPE" depart="399.1900000000015" route="route_2" /><vehicle id="vehicle_210" type="DEFAULT_VEHTYPE" depart="401.1000000000015" route="route_0" /><vehicle id="vehicle_211" type="DEFAULT_VEHTYPE" depart="403.0100000000015" route="route_0" /><vehicle id="vehicle_212" type="DEFAULT_VEHTYPE" depart="404.92000000000155" route="route_0" /><vehicle id="vehicle_213" type="DEFAULT_VEHTYPE" depart="406.8300000000016" route="route_0" /><vehicle id="vehicle_214" type="DEFAULT_VEHTYPE" depart="408.7400000000016" route="route_0" /><vehicle id="vehicle_215" type="DEFAULT_VEHTYPE" depart="410.6500000000016" route="route_0" /><vehicle id="vehicle_216" type="DEFAULT_VEHTYPE" depart="412.56000000000165" route="route_2" /><vehicle id="vehicle_217" type="DEFAULT_VEHTYPE" depart="414.4700000000017" route="route_2" /><vehicle id="vehicle_218" type="DEFAULT_VEHTYPE" depart="416.3800000000017" route="route_2" /><vehicle id="vehicle_219" type="DEFAULT_VEHTYPE" depart="418.2900000000017" route="route_0" /><vehicle id="vehicle_220" type="DEFAULT_VEHTYPE" depart="420.20000000000175" route="route_0" /><vehicle id="vehicle_221" type="DEFAULT_VEHTYPE" depart="422.1100000000018" route="route_0" /><vehicle id="vehicle_222" type="DEFAULT_VEHTYPE" depart="424.0200000000018" route="route_2" /><vehicle id="vehicle_223" type="DEFAULT_VEHTYPE" depart="425.9300000000018" route="route_0" /><vehicle id="vehicle_224" type="DEFAULT_VEHTYPE" depart="427.84000000000185" route="route_2" /><vehicle id="vehicle_225" type="DEFAULT_VEHTYPE" depart="429.7500000000019" route="route_2" /><vehicle id="vehicle_226" type="DEFAULT_VEHTYPE" depart="431.6600000000019" route="route_0" /><vehicle id="vehicle_227" type="DEFAULT_VEHTYPE" depart="433.5700000000019" route="route_0" /><vehicle id="vehicle_228" type="DEFAULT_VEHTYPE" depart="435.48000000000195" route="route_2" /><vehicle id="vehicle_229" type="DEFAULT_VEHTYPE" depart="437.390000000002" route="route_2" /><vehicle id="vehicle_230" type="DEFAULT_VEHTYPE" depart="439.300000000002" route="route_2" /><vehicle id="vehicle_231" type="DEFAULT_VEHTYPE" depart="441.210000000002" route="route_0" /><vehicle id="vehicle_232" type="DEFAULT_VEHTYPE" depart="443.12000000000205" route="route_2" /><vehicle id="vehicle_233" type="DEFAULT_VEHTYPE" depart="445.0300000000021" route="route_2" /><vehicle id="vehicle_234" type="DEFAULT_VEHTYPE" depart="446.9400000000021" route="route_0" /><vehicle id="vehicle_235" type="DEFAULT_VEHTYPE" depart="448.8500000000021" route="route_2" /><vehicle id="vehicle_236" type="DEFAULT_VEHTYPE" depart="450.76000000000215" route="route_2" /><vehicle id="vehicle_237" type="DEFAULT_VEHTYPE" depart="452.6700000000022" route="route_2" /><vehicle id="vehicle_238" type="DEFAULT_VEHTYPE" depart="454.5800000000022" route="route_0" /><vehicle id="vehicle_239" type="DEFAULT_VEHTYPE" depart="456.4900000000022" route="route_0" /><vehicle id="vehicle_240" type="DEFAULT_VEHTYPE" depart="458.40000000000225" route="route_0" /><vehicle id="vehicle_241" type="DEFAULT_VEHTYPE" depart="460.3100000000023" route="route_2" /><vehicle id="vehicle_242" type="DEFAULT_VEHTYPE" depart="462.2200000000023" route="route_2" /><vehicle id="vehicle_243" type="DEFAULT_VEHTYPE" depart="464.1300000000023" route="route_0" /><vehicle id="vehicle_244" type="DEFAULT_VEHTYPE" depart="466.04000000000235" route="route_0" /><vehicle id="vehicle_245" type="DEFAULT_VEHTYPE" depart="467.9500000000024" route="route_2" /><vehicle id="vehicle_246" type="DEFAULT_VEHTYPE" depart="469.8600000000024" route="route_2" /><vehicle id="vehicle_247" type="DEFAULT_VEHTYPE" depart="471.7700000000024" route="route_2" /><vehicle id="vehicle_248" type="DEFAULT_VEHTYPE" depart="473.68000000000245" route="route_2" /><vehicle id="vehicle_249" type="DEFAULT_VEHTYPE" depart="475.5900000000025" route="route_0" /><vehicle id="vehicle_250" type="DEFAULT_VEHTYPE" depart="477.5000000000025" route="route_0" /><vehicle id="vehicle_251" type="DEFAULT_VEHTYPE" depart="479.4100000000025" route="route_2" /><vehicle id="vehicle_252" type="DEFAULT_VEHTYPE" depart="481.32000000000255" route="route_0" /><vehicle id="vehicle_253" type="DEFAULT_VEHTYPE" depart="483.2300000000026" route="route_0" /><vehicle id="vehicle_254" type="DEFAULT_VEHTYPE" depart="485.1400000000026" route="route_0" /><vehicle id="vehicle_255" type="DEFAULT_VEHTYPE" depart="487.0500000000026" route="route_0" /><vehicle id="vehicle_256" type="DEFAULT_VEHTYPE" depart="488.96000000000265" route="route_0" /><vehicle id="vehicle_257" type="DEFAULT_VEHTYPE" depart="490.8700000000027" route="route_0" /><vehicle id="vehicle_258" type="DEFAULT_VEHTYPE" depart="492.7800000000027" route="route_0" /><vehicle id="vehicle_259" type="DEFAULT_VEHTYPE" depart="494.6900000000027" route="route_0" /><vehicle id="vehicle_260" type="DEFAULT_VEHTYPE" depart="496.60000000000275" route="route_2" /><vehicle id="vehicle_261" type="DEFAULT_VEHTYPE" depart="498.5100000000028" route="route_2" /><vehicle id="vehicle_262" type="DEFAULT_VEHTYPE" depart="500.4200000000028" route="route_2" /><vehicle id="vehicle_263" type="DEFAULT_VEHTYPE" depart="502.3300000000028" route="route_0" /><vehicle id="vehicle_264" type="DEFAULT_VEHTYPE" depart="504.24000000000285" route="route_0" /><vehicle id="vehicle_265" type="DEFAULT_VEHTYPE" depart="506.1500000000029" route="route_2" /><vehicle id="vehicle_266" type="DEFAULT_VEHTYPE" depart="508.0600000000029" route="route_2" /><vehicle id="vehicle_267" type="DEFAULT_VEHTYPE" depart="509.9700000000029" route="route_2" /><vehicle id="vehicle_268" type="DEFAULT_VEHTYPE" depart="511.88000000000295" route="route_2" /><vehicle id="vehicle_269" type="DEFAULT_VEHTYPE" depart="513.7900000000029" route="route_0" /><vehicle id="vehicle_270" type="DEFAULT_VEHTYPE" depart="515.7000000000029" route="route_2" /><vehicle id="vehicle_271" type="DEFAULT_VEHTYPE" depart="517.6100000000029" route="route_2" /><vehicle id="vehicle_272" type="DEFAULT_VEHTYPE" depart="519.5200000000028" route="route_2" /><vehicle id="vehicle_273" type="DEFAULT_VEHTYPE" depart="521.4300000000028" route="route_2" /><vehicle id="vehicle_274" type="DEFAULT_VEHTYPE" depart="523.3400000000028" route="route_2" /><vehicle id="vehicle_275" type="DEFAULT_VEHTYPE" depart="525.2500000000027" route="route_2" /><vehicle id="vehicle_276" type="DEFAULT_VEHTYPE" depart="527.1600000000027" route="route_2" /><vehicle id="vehicle_277" type="DEFAULT_VEHTYPE" depart="529.0700000000027" route="route_0" /><vehicle id="vehicle_278" type="DEFAULT_VEHTYPE" depart="530.9800000000026" route="route_0" /><vehicle id="vehicle_279" type="DEFAULT_VEHTYPE" depart="532.8900000000026" route="route_0" /><vehicle id="vehicle_280" type="DEFAULT_VEHTYPE" depart="534.8000000000026" route="route_0" /><vehicle id="vehicle_281" type="DEFAULT_VEHTYPE" depart="536.7100000000025" route="route_2" /><vehicle id="vehicle_282" type="DEFAULT_VEHTYPE" depart="538.6200000000025" route="route_2" /><vehicle id="vehicle_283" type="DEFAULT_VEHTYPE" depart="540.5300000000025" route="route_2" /><vehicle id="vehicle_284" type="DEFAULT_VEHTYPE" depart="542.4400000000024" route="route_0" /><vehicle id="vehicle_285" type="DEFAULT_VEHTYPE" depart="544.3500000000024" route="route_0" /><vehicle id="vehicle_286" type="DEFAULT_VEHTYPE" depart="546.2600000000024" route="route_2" /><vehicle id="vehicle_287" type="DEFAULT_VEHTYPE" depart="548.1700000000023" route="route_0" /><vehicle id="vehicle_288" type="DEFAULT_VEHTYPE" depart="550.0800000000023" route="route_0" /><vehicle id="vehicle_289" type="DEFAULT_VEHTYPE" depart="551.9900000000023" route="route_2" /><vehicle id="vehicle_290" type="DEFAULT_VEHTYPE" depart="553.9000000000023" route="route_0" /><vehicle id="vehicle_291" type="DEFAULT_VEHTYPE" depart="555.8100000000022" route="route_0" /><vehicle id="vehicle_292" type="DEFAULT_VEHTYPE" depart="557.7200000000022" route="route_0" /><vehicle id="vehicle_293" type="DEFAULT_VEHTYPE" depart="559.6300000000022" route="route_0" /><vehicle id="vehicle_294" type="DEFAULT_VEHTYPE" depart="561.5400000000021" route="route_0" /><vehicle id="vehicle_295" type="DEFAULT_VEHTYPE" depart="563.4500000000021" route="route_2" /><vehicle id="vehicle_296" type="DEFAULT_VEHTYPE" depart="565.3600000000021" route="route_2" /><vehicle id="vehicle_297" type="DEFAULT_VEHTYPE" depart="567.270000000002" route="route_0" /><vehicle id="vehicle_298" type="DEFAULT_VEHTYPE" depart="569.180000000002" route="route_2" /><vehicle id="vehicle_299" type="DEFAULT_VEHTYPE" depart="571.090000000002" route="route_0" /></routes>