<routes>
    <route id="route_0" edges="-319929498#3 -319929498#2" />
    <route id="route_2" edges="-319929498#3 32038440#11" />
<vehicle id="vehicle_0" type="DEFAULT_VEHTYPE" depart="4.2" route="route_0" departSpeed="5.00" /><vehicle id="vehicle_1" type="DEFAULT_VEHTYPE" depart="8.4" route="route_0" departSpeed="5.00" /><vehicle id="vehicle_2" type="DEFAULT_VEHTYPE" depart="12.600000000000001" route="route_2" departSpeed="5.00" /><vehicle id="vehicle_3" type="DEFAULT_VEHTYPE" depart="16.8" route="route_0" departSpeed="5.00" /><vehicle id="vehicle_4" type="DEFAULT_VEHTYPE" depart="21.0" route="route_0" departSpeed="5.00" /><vehicle id="vehicle_5" type="DEFAULT_VEHTYPE" depart="25.2" route="route_2" departSpeed="5.00" /><vehicle id="vehicle_6" type="DEFAULT_VEHTYPE" depart="29.4" route="route_2" departSpeed="5.00" /><vehicle id="vehicle_7" type="DEFAULT_VEHTYPE" depart="33.6" route="route_0" departSpeed="5.00" /><vehicle id="vehicle_8" type="DEFAULT_VEHTYPE" depart="37.800000000000004" route="route_2" departSpeed="5.00" /><vehicle id="vehicle_9" type="DEFAULT_VEHTYPE" depart="42.00000000000001" route="route_2" departSpeed="5.00" /><vehicle id="vehicle_10" type="DEFAULT_VEHTYPE" depart="46.20000000000001" route="route_0" departSpeed="5.00" /><vehicle id="vehicle_11" type="DEFAULT_VEHTYPE" depart="50.40000000000001" route="route_2" departSpeed="5.00" /><vehicle id="vehicle_12" type="DEFAULT_VEHTYPE" depart="54.600000000000016" route="route_0" departSpeed="5.00" /><vehicle id="vehicle_13" type="DEFAULT_VEHTYPE" depart="58.80000000000002" route="route_0" departSpeed="5.00" /><vehicle id="vehicle_14" type="DEFAULT_VEHTYPE" depart="63.00000000000002" route="route_0" departSpeed="5.00" /><vehicle id="vehicle_15" type="DEFAULT_VEHTYPE" depart="67.20000000000002" route="route_0" departSpeed="5.00" /><vehicle id="vehicle_16" type="DEFAULT_VEHTYPE" depart="71.40000000000002" route="route_0" departSpeed="5.00" /><vehicle id="vehicle_17" type="DEFAULT_VEHTYPE" depart="75.60000000000002" route="route_0" departSpeed="5.00" /><vehicle id="vehicle_18" type="DEFAULT_VEHTYPE" depart="79.80000000000003" route="route_2" departSpeed="5.00" /><vehicle id="vehicle_19" type="DEFAULT_VEHTYPE" depart="84.00000000000003" route="route_2" departSpeed="5.00" /><vehicle id="vehicle_20" type="DEFAULT_VEHTYPE" depart="88.20000000000003" route="route_2" departSpeed="5.00" /><vehicle id="vehicle_21" type="DEFAULT_VEHTYPE" depart="92.40000000000003" route="route_0" departSpeed="5.00" /><vehicle id="vehicle_22" type="DEFAULT_VEHTYPE" depart="96.60000000000004" route="route_0" departSpeed="5.00" /><vehicle id="vehicle_23" type="DEFAULT_VEHTYPE" depart="100.80000000000004" route="route_2" departSpeed="5.00" /><vehicle id="vehicle_24" type="DEFAULT_VEHTYPE" depart="105.00000000000004" route="route_0" departSpeed="5.00" /><vehicle id="vehicle_25" type="DEFAULT_VEHTYPE" depart="109.20000000000005" route="route_0" departSpeed="5.00" /><vehicle id="vehicle_26" type="DEFAULT_VEHTYPE" depart="113.40000000000005" route="route_0" departSpeed="5.00" /><vehicle id="vehicle_27" type="DEFAULT_VEHTYPE" depart="117.60000000000005" route="route_2" departSpeed="5.00" /><vehicle id="vehicle_28" type="DEFAULT_VEHTYPE" depart="121.80000000000005" route="route_2" departSpeed="5.00" /><vehicle id="vehicle_29" type="DEFAULT_VEHTYPE" depart="126.00000000000006" route="route_0" departSpeed="5.00" /><vehicle id="vehicle_30" type="DEFAULT_VEHTYPE" depart="130.20000000000005" route="route_2" departSpeed="5.00" /><vehicle id="vehicle_31" type="DEFAULT_VEHTYPE" depart="134.40000000000003" route="route_2" departSpeed="5.00" /><vehicle id="vehicle_32" type="DEFAULT_VEHTYPE" depart="138.60000000000002" route="route_2" departSpeed="5.00" /><vehicle id="vehicle_33" type="DEFAULT_VEHTYPE" depart="142.8" route="route_0" departSpeed="5.00" /><vehicle id="vehicle_34" type="DEFAULT_VEHTYPE" depart="147.0" route="route_0" departSpeed="5.00" /><vehicle id="vehicle_35" type="DEFAULT_VEHTYPE" depart="151.2" route="route_2" departSpeed="5.00" /><vehicle id="vehicle_36" type="DEFAULT_VEHTYPE" depart="155.39999999999998" route="route_0" departSpeed="5.00" /><vehicle id="vehicle_37" type="DEFAULT_VEHTYPE" depart="159.59999999999997" route="route_2" departSpeed="5.00" /><vehicle id="vehicle_38" type="DEFAULT_VEHTYPE" depart="163.79999999999995" route="route_2" departSpeed="5.00" /><vehicle id="vehicle_39" type="DEFAULT_VEHTYPE" depart="167.99999999999994" route="route_0" departSpeed="5.00" /><vehicle id="vehicle_40" type="DEFAULT_VEHTYPE" depart="172.19999999999993" route="route_0" departSpeed="5.00" /><vehicle id="vehicle_41" type="DEFAULT_VEHTYPE" depart="176.39999999999992" route="route_0" departSpeed="5.00" /><vehicle id="vehicle_42" type="DEFAULT_VEHTYPE" depart="180.5999999999999" route="route_0" departSpeed="5.00" /><vehicle id="vehicle_43" type="DEFAULT_VEHTYPE" depart="184.7999999999999" route="route_2" departSpeed="5.00" /><vehicle id="vehicle_44" type="DEFAULT_VEHTYPE" depart="188.9999999999999" route="route_0" departSpeed="5.00" /><vehicle id="vehicle_45" type="DEFAULT_VEHTYPE" depart="193.19999999999987" route="route_2" departSpeed="5.00" /><vehicle id="vehicle_46" type="DEFAULT_VEHTYPE" depart="197.39999999999986" route="route_0" departSpeed="5.00" /><vehicle id="vehicle_47" type="DEFAULT_VEHTYPE" depart="201.59999999999985" route="route_0" departSpeed="5.00" /><vehicle id="vehicle_48" type="DEFAULT_VEHTYPE" depart="205.79999999999984" route="route_0" departSpeed="5.00" /><vehicle id="vehicle_49" type="DEFAULT_VEHTYPE" depart="209.99999999999983" route="route_2" departSpeed="5.00" /><vehicle id="vehicle_50" type="DEFAULT_VEHTYPE" depart="214.19999999999982" route="route_2" departSpeed="5.00" /><vehicle id="vehicle_51" type="DEFAULT_VEHTYPE" depart="218.3999999999998" route="route_0" departSpeed="5.00" /><vehicle id="vehicle_52" type="DEFAULT_VEHTYPE" depart="222.5999999999998" route="route_0" departSpeed="5.00" /><vehicle id="vehicle_53" type="DEFAULT_VEHTYPE" depart="226.79999999999978" route="route_2" departSpeed="5.00" /><vehicle id="vehicle_54" type="DEFAULT_VEHTYPE" depart="230.99999999999977" route="route_2" departSpeed="5.00" /><vehicle id="vehicle_55" type="DEFAULT_VEHTYPE" depart="235.19999999999976" route="route_2" departSpeed="5.00" /><vehicle id="vehicle_56" type="DEFAULT_VEHTYPE" depart="239.39999999999975" route="route_0" departSpeed="5.00" /><vehicle id="vehicle_57" type="DEFAULT_VEHTYPE" depart="243.59999999999974" route="route_2" departSpeed="5.00" /><vehicle id="vehicle_58" type="DEFAULT_VEHTYPE" depart="247.79999999999973" route="route_2" departSpeed="5.00" /><vehicle id="vehicle_59" type="DEFAULT_VEHTYPE" depart="251.99999999999972" route="route_2" departSpeed="5.00" /><vehicle id="vehicle_60" type="DEFAULT_VEHTYPE" depart="256.1999999999997" route="route_2" departSpeed="5.00" /><vehicle id="vehicle_61" type="DEFAULT_VEHTYPE" depart="260.3999999999997" route="route_0" departSpeed="5.00" /><vehicle id="vehicle_62" type="DEFAULT_VEHTYPE" depart="264.5999999999997" route="route_2" departSpeed="5.00" /><vehicle id="vehicle_63" type="DEFAULT_VEHTYPE" depart="268.79999999999967" route="route_2" departSpeed="5.00" /><vehicle id="vehicle_64" type="DEFAULT_VEHTYPE" depart="272.99999999999966" route="route_0" departSpeed="5.00" /><vehicle id="vehicle_65" type="DEFAULT_VEHTYPE" depart="277.19999999999965" route="route_0" departSpeed="5.00" /><vehicle id="vehicle_66" type="DEFAULT_VEHTYPE" depart="281.39999999999964" route="route_0" departSpeed="5.00" /><vehicle id="vehicle_67" type="DEFAULT_VEHTYPE" depart="285.5999999999996" route="route_0" departSpeed="5.00" /><vehicle id="vehicle_68" type="DEFAULT_VEHTYPE" depart="289.7999999999996" route="route_2" departSpeed="5.00" /><vehicle id="vehicle_69" type="DEFAULT_VEHTYPE" depart="293.9999999999996" route="route_2" departSpeed="5.00" /><vehicle id="vehicle_70" type="DEFAULT_VEHTYPE" depart="298.1999999999996" route="route_0" departSpeed="5.00" /><vehicle id="vehicle_71" type="DEFAULT_VEHTYPE" depart="302.3999999999996" route="route_2" departSpeed="5.00" /><vehicle id="vehicle_72" type="DEFAULT_VEHTYPE" depart="306.59999999999957" route="route_2" departSpeed="5.00" /><vehicle id="vehicle_73" type="DEFAULT_VEHTYPE" depart="310.79999999999956" route="route_0" departSpeed="5.00" /><vehicle id="vehicle_74" type="DEFAULT_VEHTYPE" depart="314.99999999999955" route="route_2" departSpeed="5.00" /><vehicle id="vehicle_75" type="DEFAULT_VEHTYPE" depart="319.19999999999953" route="route_2" departSpeed="5.00" /><vehicle id="vehicle_76" type="DEFAULT_VEHTYPE" depart="323.3999999999995" route="route_2" departSpeed="5.00" /><vehicle id="vehicle_77" type="DEFAULT_VEHTYPE" depart="327.5999999999995" route="route_0" departSpeed="5.00" /><vehicle id="vehicle_78" type="DEFAULT_VEHTYPE" depart="331.7999999999995" route="route_0" departSpeed="5.00" /><vehicle id="vehicle_79" type="DEFAULT_VEHTYPE" depart="335.9999999999995" route="route_2" departSpeed="5.00" /><vehicle id="vehicle_80" type="DEFAULT_VEHTYPE" depart="340.1999999999995" route="route_0" departSpeed="5.00" /><vehicle id="vehicle_81" type="DEFAULT_VEHTYPE" depart="344.39999999999947" route="route_2" departSpeed="5.00" /><vehicle id="vehicle_82" type="DEFAULT_VEHTYPE" depart="348.59999999999945" route="route_2" departSpeed="5.00" /><vehicle id="vehicle_83" type="DEFAULT_VEHTYPE" depart="352.79999999999944" route="route_2" departSpeed="5.00" /><vehicle id="vehicle_84" type="DEFAULT_VEHTYPE" depart="356.99999999999943" route="route_0" departSpeed="5.00" /><vehicle id="vehicle_85" type="DEFAULT_VEHTYPE" depart="361.1999999999994" route="route_0" departSpeed="5.00" /><vehicle id="vehicle_86" type="DEFAULT_VEHTYPE" depart="365.3999999999994" route="route_2" departSpeed="5.00" /><vehicle id="vehicle_87" type="DEFAULT_VEHTYPE" depart="369.5999999999994" route="route_2" departSpeed="5.00" /><vehicle id="vehicle_88" type="DEFAULT_VEHTYPE" depart="373.7999999999994" route="route_0" departSpeed="5.00" /><vehicle id="vehicle_89" type="DEFAULT_VEHTYPE" depart="377.9999999999994" route="route_2" departSpeed="5.00" /><vehicle id="vehicle_90" type="DEFAULT_VEHTYPE" depart="382.19999999999936" route="route_2" departSpeed="5.00" /><vehicle id="vehicle_91" type="DEFAULT_VEHTYPE" depart="386.39999999999935" route="route_2" departSpeed="5.00" /><vehicle id="vehicle_92" type="DEFAULT_VEHTYPE" depart="390.59999999999934" route="route_0" departSpeed="5.00" /><vehicle id="vehicle_93" type="DEFAULT_VEHTYPE" depart="394.79999999999933" route="route_0" departSpeed="5.00" /><vehicle id="vehicle_94" type="DEFAULT_VEHTYPE" depart="398.9999999999993" route="route_0" departSpeed="5.00" /><vehicle id="vehicle_95" type="DEFAULT_VEHTYPE" depart="403.1999999999993" route="route_0" departSpeed="5.00" /><vehicle id="vehicle_96" type="DEFAULT_VEHTYPE" depart="407.3999999999993" route="route_0" departSpeed="5.00" /><vehicle id="vehicle_97" type="DEFAULT_VEHTYPE" depart="411.5999999999993" route="route_0" departSpeed="5.00" /><vehicle id="vehicle_98" type="DEFAULT_VEHTYPE" depart="415.7999999999993" route="route_2" departSpeed="5.00" /><vehicle id="vehicle_99" type="DEFAULT_VEHTYPE" depart="419.99999999999926" route="route_0" departSpeed="5.00" /><vehicle id="vehicle_100" type="DEFAULT_VEHTYPE" depart="424.19999999999925" route="route_2" departSpeed="5.00" /><vehicle id="vehicle_101" type="DEFAULT_VEHTYPE" depart="428.39999999999924" route="route_0" departSpeed="5.00" /><vehicle id="vehicle_102" type="DEFAULT_VEHTYPE" depart="432.5999999999992" route="route_2" departSpeed="5.00" /><vehicle id="vehicle_103" type="DEFAULT_VEHTYPE" depart="436.7999999999992" route="route_2" departSpeed="5.00" /><vehicle id="vehicle_104" type="DEFAULT_VEHTYPE" depart="440.9999999999992" route="route_2" departSpeed="5.00" /><vehicle id="vehicle_105" type="DEFAULT_VEHTYPE" depart="445.1999999999992" route="route_2" departSpeed="5.00" /><vehicle id="vehicle_106" type="DEFAULT_VEHTYPE" depart="449.3999999999992" route="route_2" departSpeed="5.00" /><vehicle id="vehicle_107" type="DEFAULT_VEHTYPE" depart="453.59999999999917" route="route_2" departSpeed="5.00" /><vehicle id="vehicle_108" type="DEFAULT_VEHTYPE" depart="457.79999999999916" route="route_2" departSpeed="5.00" /><vehicle id="vehicle_109" type="DEFAULT_VEHTYPE" depart="461.99999999999915" route="route_0" departSpeed="5.00" /><vehicle id="vehicle_110" type="DEFAULT_VEHTYPE" depart="466.19999999999914" route="route_0" departSpeed="5.00" /><vehicle id="vehicle_111" type="DEFAULT_VEHTYPE" depart="470.3999999999991" route="route_0" departSpeed="5.00" /><vehicle id="vehicle_112" type="DEFAULT_VEHTYPE" depart="474.5999999999991" route="route_0" departSpeed="5.00" /><vehicle id="vehicle_113" type="DEFAULT_VEHTYPE" depart="478.7999999999991" route="route_2" departSpeed="5.00" /><vehicle id="vehicle_114" type="DEFAULT_VEHTYPE" depart="482.9999999999991" route="route_0" departSpeed="5.00" /><vehicle id="vehicle_115" type="DEFAULT_VEHTYPE" depart="487.1999999999991" route="route_2" departSpeed="5.00" /><vehicle id="vehicle_116" type="DEFAULT_VEHTYPE" depart="491.39999999999907" route="route_2" departSpeed="5.00" /><vehicle id="vehicle_117" type="DEFAULT_VEHTYPE" depart="495.59999999999906" route="route_0" departSpeed="5.00" /><vehicle id="vehicle_118" type="DEFAULT_VEHTYPE" depart="499.79999999999905" route="route_2" departSpeed="5.00" /><vehicle id="vehicle_119" type="DEFAULT_VEHTYPE" depart="503.99999999999903" route="route_0" departSpeed="5.00" /><vehicle id="vehicle_120" type="DEFAULT_VEHTYPE" depart="508.199999999999" route="route_2" departSpeed="5.00" /><vehicle id="vehicle_121" type="DEFAULT_VEHTYPE" depart="512.3999999999991" route="route_0" departSpeed="5.00" /><vehicle id="vehicle_122" type="DEFAULT_VEHTYPE" depart="516.5999999999991" route="route_2" departSpeed="5.00" /><vehicle id="vehicle_123" type="DEFAULT_VEHTYPE" depart="520.7999999999992" route="route_2" departSpeed="5.00" /><vehicle id="vehicle_124" type="DEFAULT_VEHTYPE" depart="524.9999999999992" route="route_0" departSpeed="5.00" /><vehicle id="vehicle_125" type="DEFAULT_VEHTYPE" depart="529.1999999999992" route="route_2" departSpeed="5.00" /><vehicle id="vehicle_126" type="DEFAULT_VEHTYPE" depart="533.3999999999993" route="route_0" departSpeed="5.00" /><vehicle id="vehicle_127" type="DEFAULT_VEHTYPE" depart="537.5999999999993" route="route_0" departSpeed="5.00" /><vehicle id="vehicle_128" type="DEFAULT_VEHTYPE" depart="541.7999999999994" route="route_0" departSpeed="5.00" /><vehicle id="vehicle_129" type="DEFAULT_VEHTYPE" depart="545.9999999999994" route="route_2" departSpeed="5.00" /><vehicle id="vehicle_130" type="DEFAULT_VEHTYPE" depart="550.1999999999995" route="route_2" departSpeed="5.00" /><vehicle id="vehicle_131" type="DEFAULT_VEHTYPE" depart="554.3999999999995" route="route_0" departSpeed="5.00" /><vehicle id="vehicle_132" type="DEFAULT_VEHTYPE" depart="558.5999999999996" route="route_2" departSpeed="5.00" /><vehicle id="vehicle_133" type="DEFAULT_VEHTYPE" depart="562.7999999999996" route="route_0" departSpeed="5.00" /><vehicle id="vehicle_134" type="DEFAULT_VEHTYPE" depart="566.9999999999997" route="route_2" departSpeed="5.00" /><vehicle id="vehicle_135" type="DEFAULT_VEHTYPE" depart="571.1999999999997" route="route_2" departSpeed="5.00" /><vehicle id="vehicle_136" type="DEFAULT_VEHTYPE" depart="575.3999999999997" route="route_2" departSpeed="5.00" /><vehicle id="vehicle_137" type="DEFAULT_VEHTYPE" depart="579.5999999999998" route="route_0" departSpeed="5.00" /><vehicle id="vehicle_138" type="DEFAULT_VEHTYPE" depart="583.7999999999998" route="route_0" departSpeed="5.00" /><vehicle id="vehicle_139" type="DEFAULT_VEHTYPE" depart="587.9999999999999" route="route_0" departSpeed="5.00" /><vehicle id="vehicle_140" type="DEFAULT_VEHTYPE" depart="592.1999999999999" route="route_0" departSpeed="5.00" /><vehicle id="vehicle_141" type="DEFAULT_VEHTYPE" depart="596.4" route="route_2" departSpeed="5.00" /><vehicle id="vehicle_142" type="DEFAULT_VEHTYPE" depart="600.6" route="route_2" departSpeed="5.00" /><vehicle id="vehicle_143" type="DEFAULT_VEHTYPE" depart="604.8000000000001" route="route_0" departSpeed="5.00" /><vehicle id="vehicle_144" type="DEFAULT_VEHTYPE" depart="609.0000000000001" route="route_0" departSpeed="5.00" /><vehicle id="vehicle_145" type="DEFAULT_VEHTYPE" depart="613.2000000000002" route="route_0" departSpeed="5.00" /><vehicle id="vehicle_146" type="DEFAULT_VEHTYPE" depart="617.4000000000002" route="route_0" departSpeed="5.00" /><vehicle id="vehicle_147" type="DEFAULT_VEHTYPE" depart="621.6000000000003" route="route_2" departSpeed="5.00" /><vehicle id="vehicle_148" type="DEFAULT_VEHTYPE" depart="625.8000000000003" route="route_2" departSpeed="5.00" /><vehicle id="vehicle_149" type="DEFAULT_VEHTYPE" depart="630.0000000000003" route="route_0" departSpeed="5.00" /><vehicle id="vehicle_150" type="DEFAULT_VEHTYPE" depart="634.2000000000004" route="route_0" departSpeed="5.00" /><vehicle id="vehicle_151" type="DEFAULT_VEHTYPE" depart="638.4000000000004" route="route_0" departSpeed="5.00" /><vehicle id="vehicle_152" type="DEFAULT_VEHTYPE" depart="642.6000000000005" route="route_0" departSpeed="5.00" /><vehicle id="vehicle_153" type="DEFAULT_VEHTYPE" depart="646.8000000000005" route="route_0" departSpeed="5.00" /><vehicle id="vehicle_154" type="DEFAULT_VEHTYPE" depart="651.0000000000006" route="route_0" departSpeed="5.00" /><vehicle id="vehicle_155" type="DEFAULT_VEHTYPE" depart="655.2000000000006" route="route_2" departSpeed="5.00" /><vehicle id="vehicle_156" type="DEFAULT_VEHTYPE" depart="659.4000000000007" route="route_2" departSpeed="5.00" /><vehicle id="vehicle_157" type="DEFAULT_VEHTYPE" depart="663.6000000000007" route="route_0" departSpeed="5.00" /><vehicle id="vehicle_158" type="DEFAULT_VEHTYPE" depart="667.8000000000008" route="route_2" departSpeed="5.00" /><vehicle id="vehicle_159" type="DEFAULT_VEHTYPE" depart="672.0000000000008" route="route_2" departSpeed="5.00" /><vehicle id="vehicle_160" type="DEFAULT_VEHTYPE" depart="676.2000000000008" route="route_0" departSpeed="5.00" /><vehicle id="vehicle_161" type="DEFAULT_VEHTYPE" depart="680.4000000000009" route="route_2" departSpeed="5.00" /><vehicle id="vehicle_162" type="DEFAULT_VEHTYPE" depart="684.6000000000009" route="route_2" departSpeed="5.00" /><vehicle id="vehicle_163" type="DEFAULT_VEHTYPE" depart="688.800000000001" route="route_2" departSpeed="5.00" /><vehicle id="vehicle_164" type="DEFAULT_VEHTYPE" depart="693.000000000001" route="route_2" departSpeed="5.00" /><vehicle id="vehicle_165" type="DEFAULT_VEHTYPE" depart="697.2000000000011" route="route_2" departSpeed="5.00" /><vehicle id="vehicle_166" type="DEFAULT_VEHTYPE" depart="701.4000000000011" route="route_0" departSpeed="5.00" /><vehicle id="vehicle_167" type="DEFAULT_VEHTYPE" depart="705.6000000000012" route="route_0" departSpeed="5.00" /><vehicle id="vehicle_168" type="DEFAULT_VEHTYPE" depart="709.8000000000012" route="route_0" departSpeed="5.00" /><vehicle id="vehicle_169" type="DEFAULT_VEHTYPE" depart="714.0000000000013" route="route_2" departSpeed="5.00" /><vehicle id="vehicle_170" type="DEFAULT_VEHTYPE" depart="718.2000000000013" route="route_2" departSpeed="5.00" /><vehicle id="vehicle_171" type="DEFAULT_VEHTYPE" depart="722.4000000000013" route="route_0" departSpeed="5.00" /><vehicle id="vehicle_172" type="DEFAULT_VEHTYPE" depart="726.6000000000014" route="route_0" departSpeed="5.00" /><vehicle id="vehicle_173" type="DEFAULT_VEHTYPE" depart="730.8000000000014" route="route_2" departSpeed="5.00" /><vehicle id="vehicle_174" type="DEFAULT_VEHTYPE" depart="735.0000000000015" route="route_0" departSpeed="5.00" /><vehicle id="vehicle_175" type="DEFAULT_VEHTYPE" depart="739.2000000000015" route="route_0" departSpeed="5.00" /><vehicle id="vehicle_176" type="DEFAULT_VEHTYPE" depart="743.4000000000016" route="route_2" departSpeed="5.00" /><vehicle id="vehicle_177" type="DEFAULT_VEHTYPE" depart="747.6000000000016" route="route_2" departSpeed="5.00" /><vehicle id="vehicle_178" type="DEFAULT_VEHTYPE" depart="751.8000000000017" route="route_2" departSpeed="5.00" /><vehicle id="vehicle_179" type="DEFAULT_VEHTYPE" depart="756.0000000000017" route="route_0" departSpeed="5.00" /><vehicle id="vehicle_180" type="DEFAULT_VEHTYPE" depart="760.2000000000018" route="route_0" departSpeed="5.00" /><vehicle id="vehicle_181" type="DEFAULT_VEHTYPE" depart="764.4000000000018" route="route_0" departSpeed="5.00" /><vehicle id="vehicle_182" type="DEFAULT_VEHTYPE" depart="768.6000000000018" route="route_2" departSpeed="5.00" /><vehicle id="vehicle_183" type="DEFAULT_VEHTYPE" depart="772.8000000000019" route="route_0" departSpeed="5.00" /><vehicle id="vehicle_184" type="DEFAULT_VEHTYPE" depart="777.0000000000019" route="route_0" departSpeed="5.00" /><vehicle id="vehicle_185" type="DEFAULT_VEHTYPE" depart="781.200000000002" route="route_2" departSpeed="5.00" /><vehicle id="vehicle_186" type="DEFAULT_VEHTYPE" depart="785.400000000002" route="route_0" departSpeed="5.00" /><vehicle id="vehicle_187" type="DEFAULT_VEHTYPE" depart="789.6000000000021" route="route_0" departSpeed="5.00" /><vehicle id="vehicle_188" type="DEFAULT_VEHTYPE" depart="793.8000000000021" route="route_0" departSpeed="5.00" /><vehicle id="vehicle_189" type="DEFAULT_VEHTYPE" depart="798.0000000000022" route="route_0" departSpeed="5.00" /><vehicle id="vehicle_190" type="DEFAULT_VEHTYPE" depart="802.2000000000022" route="route_2" departSpeed="5.00" /><vehicle id="vehicle_191" type="DEFAULT_VEHTYPE" depart="806.4000000000023" route="route_2" departSpeed="5.00" /><vehicle id="vehicle_192" type="DEFAULT_VEHTYPE" depart="810.6000000000023" route="route_0" departSpeed="5.00" /><vehicle id="vehicle_193" type="DEFAULT_VEHTYPE" depart="814.8000000000023" route="route_0" departSpeed="5.00" /><vehicle id="vehicle_194" type="DEFAULT_VEHTYPE" depart="819.0000000000024" route="route_2" departSpeed="5.00" /><vehicle id="vehicle_195" type="DEFAULT_VEHTYPE" depart="823.2000000000024" route="route_2" departSpeed="5.00" /><vehicle id="vehicle_196" type="DEFAULT_VEHTYPE" depart="827.4000000000025" route="route_0" departSpeed="5.00" /><vehicle id="vehicle_197" type="DEFAULT_VEHTYPE" depart="831.6000000000025" route="route_0" departSpeed="5.00" /><vehicle id="vehicle_198" type="DEFAULT_VEHTYPE" depart="835.8000000000026" route="route_0" departSpeed="5.00" /><vehicle id="vehicle_199" type="DEFAULT_VEHTYPE" depart="840.0000000000026" route="route_0" departSpeed="5.00" /><vehicle id="vehicle_200" type="DEFAULT_VEHTYPE" depart="844.2000000000027" route="route_2" departSpeed="5.00" /><vehicle id="vehicle_201" type="DEFAULT_VEHTYPE" depart="848.4000000000027" route="route_2" departSpeed="5.00" /><vehicle id="vehicle_202" type="DEFAULT_VEHTYPE" depart="852.6000000000028" route="route_2" departSpeed="5.00" /><vehicle id="vehicle_203" type="DEFAULT_VEHTYPE" depart="856.8000000000028" route="route_0" departSpeed="5.00" /><vehicle id="vehicle_204" type="DEFAULT_VEHTYPE" depart="861.0000000000028" route="route_0" departSpeed="5.00" /><vehicle id="vehicle_205" type="DEFAULT_VEHTYPE" depart="865.2000000000029" route="route_0" departSpeed="5.00" /><vehicle id="vehicle_206" type="DEFAULT_VEHTYPE" depart="869.4000000000029" route="route_2" departSpeed="5.00" /><vehicle id="vehicle_207" type="DEFAULT_VEHTYPE" depart="873.600000000003" route="route_0" departSpeed="5.00" /><vehicle id="vehicle_208" type="DEFAULT_VEHTYPE" depart="877.800000000003" route="route_2" departSpeed="5.00" /><vehicle id="vehicle_209" type="DEFAULT_VEHTYPE" depart="882.0000000000031" route="route_0" departSpeed="5.00" /><vehicle id="vehicle_210" type="DEFAULT_VEHTYPE" depart="886.2000000000031" route="route_2" departSpeed="5.00" /><vehicle id="vehicle_211" type="DEFAULT_VEHTYPE" depart="890.4000000000032" route="route_0" departSpeed="5.00" /><vehicle id="vehicle_212" type="DEFAULT_VEHTYPE" depart="894.6000000000032" route="route_2" departSpeed="5.00" /><vehicle id="vehicle_213" type="DEFAULT_VEHTYPE" depart="898.8000000000033" route="route_0" departSpeed="5.00" /><vehicle id="vehicle_214" type="DEFAULT_VEHTYPE" depart="903.0000000000033" route="route_0" departSpeed="5.00" /><vehicle id="vehicle_215" type="DEFAULT_VEHTYPE" depart="907.2000000000033" route="route_0" departSpeed="5.00" /><vehicle id="vehicle_216" type="DEFAULT_VEHTYPE" depart="911.4000000000034" route="route_2" departSpeed="5.00" /><vehicle id="vehicle_217" type="DEFAULT_VEHTYPE" depart="915.6000000000034" route="route_2" departSpeed="5.00" /><vehicle id="vehicle_218" type="DEFAULT_VEHTYPE" depart="919.8000000000035" route="route_2" departSpeed="5.00" /><vehicle id="vehicle_219" type="DEFAULT_VEHTYPE" depart="924.0000000000035" route="route_0" departSpeed="5.00" /><vehicle id="vehicle_220" type="DEFAULT_VEHTYPE" depart="928.2000000000036" route="route_0" departSpeed="5.00" /><vehicle id="vehicle_221" type="DEFAULT_VEHTYPE" depart="932.4000000000036" route="route_2" departSpeed="5.00" /><vehicle id="vehicle_222" type="DEFAULT_VEHTYPE" depart="936.6000000000037" route="route_0" departSpeed="5.00" /><vehicle id="vehicle_223" type="DEFAULT_VEHTYPE" depart="940.8000000000037" route="route_0" departSpeed="5.00" /><vehicle id="vehicle_224" type="DEFAULT_VEHTYPE" depart="945.0000000000038" route="route_0" departSpeed="5.00" /><vehicle id="vehicle_225" type="DEFAULT_VEHTYPE" depart="949.2000000000038" route="route_2" departSpeed="5.00" /><vehicle id="vehicle_226" type="DEFAULT_VEHTYPE" depart="953.4000000000038" route="route_0" departSpeed="5.00" /><vehicle id="vehicle_227" type="DEFAULT_VEHTYPE" depart="957.6000000000039" route="route_2" departSpeed="5.00" /><vehicle id="vehicle_228" type="DEFAULT_VEHTYPE" depart="961.8000000000039" route="route_2" departSpeed="5.00" /><vehicle id="vehicle_229" type="DEFAULT_VEHTYPE" depart="966.000000000004" route="route_0" departSpeed="5.00" /><vehicle id="vehicle_230" type="DEFAULT_VEHTYPE" depart="970.200000000004" route="route_0" departSpeed="5.00" /><vehicle id="vehicle_231" type="DEFAULT_VEHTYPE" depart="974.4000000000041" route="route_2" departSpeed="5.00" /><vehicle id="vehicle_232" type="DEFAULT_VEHTYPE" depart="978.6000000000041" route="route_2" departSpeed="5.00" /><vehicle id="vehicle_233" type="DEFAULT_VEHTYPE" depart="982.8000000000042" route="route_0" departSpeed="5.00" /><vehicle id="vehicle_234" type="DEFAULT_VEHTYPE" depart="987.0000000000042" route="route_0" departSpeed="5.00" /><vehicle id="vehicle_235" type="DEFAULT_VEHTYPE" depart="991.2000000000043" route="route_0" departSpeed="5.00" /><vehicle id="vehicle_236" type="DEFAULT_VEHTYPE" depart="995.4000000000043" route="route_0" departSpeed="5.00" /><vehicle id="vehicle_237" type="DEFAULT_VEHTYPE" depart="999.6000000000043" route="route_2" departSpeed="5.00" /><vehicle id="vehicle_238" type="DEFAULT_VEHTYPE" depart="1003.8000000000044" route="route_0" departSpeed="5.00" /><vehicle id="vehicle_239" type="DEFAULT_VEHTYPE" depart="1008.0000000000044" route="route_2" departSpeed="5.00" /><vehicle id="vehicle_240" type="DEFAULT_VEHTYPE" depart="1012.2000000000045" route="route_0" departSpeed="5.00" /><vehicle id="vehicle_241" type="DEFAULT_VEHTYPE" depart="1016.4000000000045" route="route_2" departSpeed="5.00" /><vehicle id="vehicle_242" type="DEFAULT_VEHTYPE" depart="1020.6000000000046" route="route_0" departSpeed="5.00" /><vehicle id="vehicle_243" type="DEFAULT_VEHTYPE" depart="1024.8000000000045" route="route_2" departSpeed="5.00" /><vehicle id="vehicle_244" type="DEFAULT_VEHTYPE" depart="1029.0000000000045" route="route_0" departSpeed="5.00" /><vehicle id="vehicle_245" type="DEFAULT_VEHTYPE" depart="1033.2000000000046" route="route_2" departSpeed="5.00" /><vehicle id="vehicle_246" type="DEFAULT_VEHTYPE" depart="1037.4000000000046" route="route_0" departSpeed="5.00" /><vehicle id="vehicle_247" type="DEFAULT_VEHTYPE" depart="1041.6000000000047" route="route_0" departSpeed="5.00" /><vehicle id="vehicle_248" type="DEFAULT_VEHTYPE" depart="1045.8000000000047" route="route_2" departSpeed="5.00" /><vehicle id="vehicle_249" type="DEFAULT_VEHTYPE" depart="1050.0000000000048" route="route_0" departSpeed="5.00" /><vehicle id="vehicle_250" type="DEFAULT_VEHTYPE" depart="1054.2000000000048" route="route_2" departSpeed="5.00" /><vehicle id="vehicle_251" type="DEFAULT_VEHTYPE" depart="1058.4000000000049" route="route_0" departSpeed="5.00" /><vehicle id="vehicle_252" type="DEFAULT_VEHTYPE" depart="1062.600000000005" route="route_2" departSpeed="5.00" /><vehicle id="vehicle_253" type="DEFAULT_VEHTYPE" depart="1066.800000000005" route="route_2" departSpeed="5.00" /><vehicle id="vehicle_254" type="DEFAULT_VEHTYPE" depart="1071.000000000005" route="route_2" departSpeed="5.00" /><vehicle id="vehicle_255" type="DEFAULT_VEHTYPE" depart="1075.200000000005" route="route_2" departSpeed="5.00" /><vehicle id="vehicle_256" type="DEFAULT_VEHTYPE" depart="1079.400000000005" route="route_0" departSpeed="5.00" /><vehicle id="vehicle_257" type="DEFAULT_VEHTYPE" depart="1083.6000000000051" route="route_2" departSpeed="5.00" /><vehicle id="vehicle_258" type="DEFAULT_VEHTYPE" depart="1087.8000000000052" route="route_2" departSpeed="5.00" /><vehicle id="vehicle_259" type="DEFAULT_VEHTYPE" depart="1092.0000000000052" route="route_0" departSpeed="5.00" /><vehicle id="vehicle_260" type="DEFAULT_VEHTYPE" depart="1096.2000000000053" route="route_0" departSpeed="5.00" /><vehicle id="vehicle_261" type="DEFAULT_VEHTYPE" depart="1100.4000000000053" route="route_2" departSpeed="5.00" /><vehicle id="vehicle_262" type="DEFAULT_VEHTYPE" depart="1104.6000000000054" route="route_0" departSpeed="5.00" /><vehicle id="vehicle_263" type="DEFAULT_VEHTYPE" depart="1108.8000000000054" route="route_0" departSpeed="5.00" /><vehicle id="vehicle_264" type="DEFAULT_VEHTYPE" depart="1113.0000000000055" route="route_0" departSpeed="5.00" /><vehicle id="vehicle_265" type="DEFAULT_VEHTYPE" depart="1117.2000000000055" route="route_2" departSpeed="5.00" /><v