<?xml version="1.0" encoding="UTF-8"?>

<routes>
    <route id="route_0" edges="-319929498#3 -319929498#2" />
    <route id="route_2" edges="-319929498#3 32038440#11" />
</routes>
