<routes xmlns:xsi="http://www.w3.org/2001/XMLSchema-instance" xsi:noNamespaceSchemaLocation="http://sumo.dlr.de/xsd/routes_file.xsd">
    <vehicle id="vehicle_9" type="DEFAULT_VEHTYPE" depart="0.00" arrival="28.00">
        <route edges="-319929498#3 32038440#11"/>
    </vehicle>
</routes>