<routes>
    <route id="route_0" edges="-319929498#3 -319929498#2"/>

    <route id="route_2" edges="-319929498#3 32038440#11"/>
    <vehicle id="vehicle_0" type="DEFAULT_VEHTYPE" depart="0.00" route="route_0"/>


    <vehicle id="vehicle_3" type="DEFAULT_VEHTYPE" depart="6.00" route="route_2"/>


    <vehicle id="vehicle_8" type="DEFAULT_VEHTYPE" depart="16.00" route="route_2"/>
    <vehicle id="vehicle_10" type="DEFAULT_VEHTYPE" depart="18.00" route="route_0"/>
    <vehicle id="vehicle_11" type="DEFAULT_VEHTYPE" depart="19.00" route="route_2"/>
    <vehicle id="vehicle_12" type="DEFAULT_VEHTYPE" depart="23.00" route="route_0"/>
    <vehicle id="vehicle_13" type="DEFAULT_VEHTYPE" depart="25.00" route="route_0"/>
    <vehicle id="vehicle_15" type="DEFAULT_VEHTYPE" depart="30.00" route="route_2"/>
    <vehicle id="vehicle_16" type="DEFAULT_VEHTYPE" depart="31.00" route="route_0"/>
    <vehicle id="vehicle_17" type="DEFAULT_VEHTYPE" depart="32.00" route="route_2"/>


    <vehicle id="vehicle_18" type="DEFAULT_VEHTYPE" depart="36.29822032779738" route="route_0"/>
    <vehicle id="vehicle_19" type="DEFAULT_VEHTYPE" depart="37.117972287392796" route="route_0"/>
    <vehicle id="vehicle_20" type="DEFAULT_VEHTYPE" depart="37.42246539805578" route="route_0"/>
    <vehicle id="vehicle_21" type="DEFAULT_VEHTYPE" depart="37.97853186822165" route="route_0"/>
    <vehicle id="vehicle_22" type="DEFAULT_VEHTYPE" depart="38.17911880744041" route="route_0"/>
    <vehicle id="vehicle_23" type="DEFAULT_VEHTYPE" depart="38.86109112996513" route="route_0"/>
    <vehicle id="vehicle_24" type="DEFAULT_VEHTYPE" depart="39.12548412933755" route="route_0"/>
    <vehicle id="vehicle_25" type="DEFAULT_VEHTYPE" depart="39.8868341225573" route="route_0"/>
    <vehicle id="vehicle_26" type="DEFAULT_VEHTYPE" depart="40.0495253392147" route="route_0"/>
    <vehicle id="vehicle_27" type="DEFAULT_VEHTYPE" depart="41.27422425101032" route="route_0"/>
    <vehicle id="vehicle_28" type="DEFAULT_VEHTYPE" depart="45.7116022121027" route="route_0"/>
    <vehicle id="vehicle_29" type="DEFAULT_VEHTYPE" depart="45.922802266790775" route="route_0"/>
    <vehicle id="vehicle_30" type="DEFAULT_VEHTYPE" depart="48.312077840197944" route="route_0"/>
    <vehicle id="vehicle_31" type="DEFAULT_VEHTYPE" depart="48.44211324104508" route="route_0"/>
    <vehicle id="vehicle_32" type="DEFAULT_VEHTYPE" depart="49.23079188063229" route="route_0"/>
    <vehicle id="vehicle_33" type="DEFAULT_VEHTYPE" depart="53.088522415775486" route="route_0"/>
    <vehicle id="vehicle_34" type="DEFAULT_VEHTYPE" depart="54.74841855056738" route="route_0"/>
    <vehicle id="vehicle_35" type="DEFAULT_VEHTYPE" depart="56.21088601562574" route="route_0"/>
    <vehicle id="vehicle_36" type="DEFAULT_VEHTYPE" depart="57.02101060184257" route="route_0"/>
    <vehicle id="vehicle_37" type="DEFAULT_VEHTYPE" depart="57.21928460280681" route="route_0"/>
    <vehicle id="vehicle_38" type="DEFAULT_VEHTYPE" depart="57.51485640026417" route="route_0"/>
    <vehicle id="vehicle_39" type="DEFAULT_VEHTYPE" depart="57.85962286161536" route="route_0"/>
    <vehicle id="vehicle_40" type="DEFAULT_VEHTYPE" depart="63.33357554050007" route="route_0"/>
    <vehicle id="vehicle_41" type="DEFAULT_VEHTYPE" depart="65.33350269948916" route="route_0"/>
    <vehicle id="vehicle_42" type="DEFAULT_VEHTYPE" depart="65.42547900330314" route="route_0"/>
    <vehicle id="vehicle_43" type="DEFAULT_VEHTYPE" depart="67.58475745296995" route="route_0"/>
    <vehicle id="vehicle_44" type="DEFAULT_VEHTYPE" depart="67.64717344966638" route="route_0"/>
    <vehicle id="vehicle_45" type="DEFAULT_VEHTYPE" depart="70.2863040730753" route="route_0"/>
    <vehicle id="vehicle_46" type="DEFAULT_VEHTYPE" depart="71.2547873710651" route="route_0"/>
    <vehicle id="vehicle_47" type="DEFAULT_VEHTYPE" depart="72.24373683814858" route="route_0"/>
    <vehicle id="vehicle_48" type="DEFAULT_VEHTYPE" depart="72.86009412397804" route="route_0"/>
    <vehicle id="vehicle_49" type="DEFAULT_VEHTYPE" depart="73.33011527522021" route="route_0"/>
    <vehicle id="vehicle_50" type="DEFAULT_VEHTYPE" depart="75.5215430956935" route="route_0"/>
    <vehicle id="vehicle_51" type="DEFAULT_VEHTYPE" depart="77.59464308801489" route="route_0"/>
    <vehicle id="vehicle_52" type="DEFAULT_VEHTYPE" depart="77.81547562195868" route="route_0"/>
    <vehicle id="vehicle_53" type="DEFAULT_VEHTYPE" depart="78.22376015861161" route="route_0"/>
    <vehicle id="vehicle_54" type="DEFAULT_VEHTYPE" depart="78.25886421962267" route="route_0"/>
    <vehicle id="vehicle_55" type="DEFAULT_VEHTYPE" depart="79.10307057648487" route="route_0"/>
    <vehicle id="vehicle_56" type="DEFAULT_VEHTYPE" depart="79.53516865249503" route="route_0"/>
    <vehicle id="vehicle_57" type="DEFAULT_VEHTYPE" depart="82.03055429722298" route="route_0"/>
    <vehicle id="vehicle_58" type="DEFAULT_VEHTYPE" depart="83.08913698621014" route="route_0"/>
    <vehicle id="vehicle_59" type="DEFAULT_VEHTYPE" depart="83.42253748462595" route="route_0"/>
    <vehicle id="vehicle_60" type="DEFAULT_VEHTYPE" depart="85.70163252204671" route="route_0"/>
    <vehicle id="vehicle_61" type="DEFAULT_VEHTYPE" depart="85.78803350041629" route="route_0"/>
    <vehicle id="vehicle_62" type="DEFAULT_VEHTYPE" depart="87.96303264743906" route="route_0"/>
    <vehicle id="vehicle_63" type="DEFAULT_VEHTYPE" depart="89.44618766788207" route="route_0"/>
    <vehicle id="vehicle_64" type="DEFAULT_VEHTYPE" depart="89.89346055840504" route="route_0"/>
    <vehicle id="vehicle_65" type="DEFAULT_VEHTYPE" depart="92.33127187688169" route="route_0"/>
    <vehicle id="vehicle_66" type="DEFAULT_VEHTYPE" depart="92.84426304294712" route="route_0"/>
    <vehicle id="vehicle_67" type="DEFAULT_VEHTYPE" depart="94.4507436263225" route="route_0"/>
    <vehicle id="vehicle_68" type="DEFAULT_VEHTYPE" depart="95.27297948814122" route="route_0"/>
    <vehicle id="vehicle_69" type="DEFAULT_VEHTYPE" depart="95.92480400367533" route="route_0"/>
    <vehicle id="vehicle_70" type="DEFAULT_VEHTYPE" depart="96.29908045649726" route="route_0"/>
    <vehicle id="vehicle_71" type="DEFAULT_VEHTYPE" depart="101.4677134062042" route="route_0"/>
    <vehicle id="vehicle_72" type="DEFAULT_VEHTYPE" depart="101.48605754773722" route="route_0"/>
    <vehicle id="vehicle_73" type="DEFAULT_VEHTYPE" depart="101.55014347618757" route="route_0"/>
    <vehicle id="vehicle_74" type="DEFAULT_VEHTYPE" depart="102.20248895734015" route="route_0"/>
    <vehicle id="vehicle_75" type="DEFAULT_VEHTYPE" depart="103.56662758201233" route="route_0"/>
    <vehicle id="vehicle_76" type="DEFAULT_VEHTYPE" depart="103.63902099022496" route="route_0"/>
    <vehicle id="vehicle_77" type="DEFAULT_VEHTYPE" depart="103.95486380989048" route="route_0"/>
    <vehicle id="vehicle_78" type="DEFAULT_VEHTYPE" depart="103.99421941925078" route="route_0"/>
    <vehicle id="vehicle_79" type="DEFAULT_VEHTYPE" depart="104.37430027504264" route="route_0"/>
    <vehicle id="vehicle_80" type="DEFAULT_VEHTYPE" depart="105.41246990157539" route="route_0"/>
    <vehicle id="vehicle_81" type="DEFAULT_VEHTYPE" depart="105.43117269709506" route="route_0"/>
    <vehicle id="vehicle_82" type="DEFAULT_VEHTYPE" depart="105.97851945880976" route="route_0"/>
    <vehicle id="vehicle_83" type="DEFAULT_VEHTYPE" depart="106.06426501035315" route="route_0"/>
    <vehicle id="vehicle_84" type="DEFAULT_VEHTYPE" depart="106.85293912320905" route="route_0"/>
    <vehicle id="vehicle_85" type="DEFAULT_VEHTYPE" depart="107.71444282211398" route="route_0"/>
    <vehicle id="vehicle_86" type="DEFAULT_VEHTYPE" depart="107.88327281077328" route="route_0"/>
    <vehicle id="vehicle_87" type="DEFAULT_VEHTYPE" depart="109.11966406391822" route="route_0"/>
    <vehicle id="vehicle_88" type="DEFAULT_VEHTYPE" depart="109.3834175817548" route="route_0"/>
    <vehicle id="vehicle_89" type="DEFAULT_VEHTYPE" depart="111.61610529822018" route="route_0"/>
    <vehicle id="vehicle_90" type="DEFAULT_VEHTYPE" depart="114.25477522408703" route="route_0"/>
    <vehicle id="vehicle_91" type="DEFAULT_VEHTYPE" depart="114.33347171954138" route="route_0"/>
    <vehicle id="vehicle_92" type="DEFAULT_VEHTYPE" depart="116.81387494397609" route="route_0"/>
    <vehicle id="vehicle_93" type="DEFAULT_VEHTYPE" depart="118.38771372194014" route="route_0"/>
    <vehicle id="vehicle_94" type="DEFAULT_VEHTYPE" depart="118.76135132871454" route="route_0"/>
    <vehicle id="vehicle_95" type="DEFAULT_VEHTYPE" depart="120.54135904864933" route="route_0"/>
    <vehicle id="vehicle_96" type="DEFAULT_VEHTYPE" depart="124.43267326525458" route="route_0"/>
    <vehicle id="vehicle_97" type="DEFAULT_VEHTYPE" depart="124.78328192909163" route="route_0"/>
    <vehicle id="vehicle_98" type="DEFAULT_VEHTYPE" depart="130.75253269574407" route="route_0"/>
    <vehicle id="vehicle_99" type="DEFAULT_VEHTYPE" depart="132.139445314462" route="route_0"/>
    <vehicle id="vehicle_100" type="DEFAULT_VEHTYPE" depart="134.1983237556917" route="route_0"/>
    <vehicle id="vehicle_101" type="DEFAULT_VEHTYPE" depart="134.8929704152701" route="route_0"/>
    <vehicle id="vehicle_102" type="DEFAULT_VEHTYPE" depart="136.07340733223901" route="route_0"/>
    <vehicle id="vehicle_103" type="DEFAULT_VEHTYPE" depart="136.70656344494245" route="route_0"/>
    <vehicle id="vehicle_104" type="DEFAULT_VEHTYPE" depart="137.11712328231775" route="route_0"/>
    <vehicle id="vehicle_105" type="DEFAULT_VEHTYPE" depart="137.3536887545922" route="route_0"/>
    <vehicle id="vehicle_106" type="DEFAULT_VEHTYPE" depart="137.77519509012618" route="route_0"/>
    <vehicle id="vehicle_107" type="DEFAULT_VEHTYPE" depart="138.12889057773725" route="route_0"/>
    <vehicle id="vehicle_108" type="DEFAULT_VEHTYPE" depart="138.51806107806252" route="route_0"/>
    <vehicle id="vehicle_109" type="DEFAULT_VEHTYPE" depart="138.91621696358504" route="route_0"/>
    <vehicle id="vehicle_110" type="DEFAULT_VEHTYPE" depart="139.9611012522913" route="route_0"/>
    <vehicle id="vehicle_111" type="DEFAULT_VEHTYPE" depart="140.1016126319659" route="route_0"/>
    <vehicle id="vehicle_112" type="DEFAULT_VEHTYPE" depart="140.67154011406853" route="route_0"/>
    <vehicle id="vehicle_113" type="DEFAULT_VEHTYPE" depart="141.18221320619614" route="route_0"/>
    <vehicle id="vehicle_114" type="DEFAULT_VEHTYPE" depart="141.49442792104645" route="route_0"/>
    <vehicle id="vehicle_115" type="DEFAULT_VEHTYPE" depart="141.7091679644533" route="route_0"/>
    <vehicle id="vehicle_116" type="DEFAULT_VEHTYPE" depart="142.15563511635844" route="route_0"/>
    <vehicle id="vehicle_117" type="DEFAULT_VEHTYPE" depart="143.51825809986258" route="route_0"/>
    <vehicle id="vehicle_118" type="DEFAULT_VEHTYPE" depart="146.0108910265919" route="route_0"/>
    <vehicle id="vehicle_119" type="DEFAULT_VEHTYPE" depart="148.43532195955876" route="route_0"/>
    <vehicle id="vehicle_120" type="DEFAULT_VEHTYPE" depart="149.63598149926906" route="route_0"/>
    <vehicle id="vehicle_121" type="DEFAULT_VEHTYPE" depart="149.79556634523007" route="route_0"/>
    <vehicle id="vehicle_122" type="DEFAULT_VEHTYPE" depart="151.38260114859938" route="route_0"/>
    <vehicle id="vehicle_123" type="DEFAULT_VEHTYPE" depart="153.00450957461544" route="route_0"/>
    <vehicle id="vehicle_124" type="DEFAULT_VEHTYPE" depart="153.35228554699665" route="route_0"/>
    <vehicle id="vehicle_125" type="DEFAULT_VEHTYPE" depart="154.036384286938" route="route_0"/>
    <vehicle id="vehicle_126" type="DEFAULT_VEHTYPE" depart="154.45910691160339" route="route_0"/>
    <vehicle id="vehicle_127" type="DEFAULT_VEHTYPE" depart="155.7203966820592" route="route_0"/>
    <vehicle id="vehicle_128" type="DEFAULT_VEHTYPE" depart="155.85069949146674" route="route_0"/>
    <vehicle id="vehicle_129" type="DEFAULT_VEHTYPE" depart="155.99733336688223" route="route_0"/>
    <vehicle id="vehicle_130" type="DEFAULT_VEHTYPE" depart="158.53459518948398" route="route_0"/>
    <vehicle id="vehicle_131" type="DEFAULT_VEHTYPE" depart="160.98013059929207" route="route_0"/>
    <vehicle id="vehicle_132" type="DEFAULT_VEHTYPE" depart="162.64644015178305" route="route_0"/>
    <vehicle id="vehicle_133" type="DEFAULT_VEHTYPE" depart="162.8851975081456" route="route_0"/>
    <vehicle id="vehicle_134" type="DEFAULT_VEHTYPE" depart="163.27782165574484" route="route_0"/>
    <vehicle id="vehicle_135" type="DEFAULT_VEHTYPE" depart="163.78967121125075" route="route_0"/>
    <vehicle id="vehicle_136" type="DEFAULT_VEHTYPE" depart="164.67674240174583" route="route_0"/>
    <vehicle id="vehicle_137" type="DEFAULT_VEHTYPE" depart="165.68518998323074" route="route_0"/>
    <vehicle id="vehicle_138" type="DEFAULT_VEHTYPE" depart="168.98834661639154" route="route_0"/>
    <vehicle id="vehicle_139" type="DEFAULT_VEHTYPE" depart="169.6111947644876" route="route_0"/>
    <vehicle id="vehicle_140" type="DEFAULT_VEHTYPE" depart="172.0359328482948" route="route_0"/>
    <vehicle id="vehicle_141" type="DEFAULT_VEHTYPE" depart="172.42293317443506" route="route_0"/>
    <vehicle id="vehicle_142" type="DEFAULT_VEHTYPE" depart="172.4556933774988" route="route_0"/>
    <vehicle id="vehicle_143" type="DEFAULT_VEHTYPE" depart="173.1770049000679" route="route_0"/>
    <vehicle id="vehicle_144" type="DEFAULT_VEHTYPE" depart="173.5061899973066" route="route_0"/>
    <vehicle id="vehicle_145" type="DEFAULT_VEHTYPE" depart="173.52229112217145" route="route_0"/>
    <vehicle id="vehicle_146" type="DEFAULT_VEHTYPE" depart="173.7879452689493" route="route_0"/>
    <vehicle id="vehicle_147" type="DEFAULT_VEHTYPE" depart="174.66690832450763" route="route_0"/>
    <vehicle id="vehicle_148" type="DEFAULT_VEHTYPE" depart="175.1698811521103" route="route_0"/>
    <vehicle id="vehicle_149" type="DEFAULT_VEHTYPE" depart="175.923270746631" route="route_0"/>
    <vehicle id="vehicle_150" type="DEFAULT_VEHTYPE" depart="175.97292958992952" route="route_0"/>
    <vehicle id="vehicle_151" type="DEFAULT_VEHTYPE" depart="178.8844959661462" route="route_0"/>
    <vehicle id="vehicle_152" type="DEFAULT_VEHTYPE" depart="179.30192401089158" route="route_0"/>
    <vehicle id="vehicle_153" type="DEFAULT_VEHTYPE" depart="182.12692159669953" route="route_0"/>
    <vehicle id="vehicle_154" type="DEFAULT_VEHTYPE" depart="184.93219727280098" route="route_0"/>
    <vehicle id="vehicle_155" type="DEFAULT_VEHTYPE" depart="185.69145531721128" route="route_0"/>
    <vehicle id="vehicle_156" type="DEFAULT_VEHTYPE" depart="186.28144650292433" route="route_0"/>
    <vehicle id="vehicle_157" type="DEFAULT_VEHTYPE" depart="188.38087224458678" route="route_0"/>
    <vehicle id="vehicle_158" type="DEFAULT_VEHTYPE" depart="189.0166757848811" route="route_0"/>
    <vehicle id="vehicle_159" type="DEFAULT_VEHTYPE" depart="192.24813645118454" route="route_0"/>
    <vehicle id="vehicle_160" type="DEFAULT_VEHTYPE" depart="192.68190201219468" route="route_0"/>
    <vehicle id="vehicle_161" type="DEFAULT_VEHTYPE" depart="193.52585463321194" route="route_0"/>
    <vehicle id="vehicle_162" type="DEFAULT_VEHTYPE" depart="193.8831062771477" route="route_0"/>
    <vehicle id="vehicle_163" type="DEFAULT_VEHTYPE" depart="195.29725386239582" route="route_0"/>
    <vehicle id="vehicle_164" type="DEFAULT_VEHTYPE" depart="195.36761199405748" route="route_0"/>
    <vehicle id="vehicle_165" type="DEFAULT_VEHTYPE" depart="196.8846294161321" route="route_0"/>
    <vehicle id="vehicle_166" type="DEFAULT_VEHTYPE" depart="198.39706201717024" route="route_0"/>
    <vehicle id="vehicle_167" type="DEFAULT_VEHTYPE" depart="199.4651292401972" route="route_0"/>
    <vehicle id="vehicle_168" type="DEFAULT_VEHTYPE" depart="199.91824029309325" route="route_0"/>
    <vehicle id="vehicle_169" type="DEFAULT_VEHTYPE" depart="200.34072719248337" route="route_0"/>
    <vehicle id="vehicle_170" type="DEFAULT_VEHTYPE" depart="203.91701898715684" route="route_0"/>
    <vehicle id="vehicle_171" type="DEFAULT_VEHTYPE" depart="205.95508883004644" route="route_0"/>
    <vehicle id="vehicle_172" type="DEFAULT_VEHTYPE" depart="206.49522750965377" route="route_0"/>
    <vehicle id="vehicle_173" type="DEFAULT_VEHTYPE" depart="208.8770324605375" route="route_0"/>
    <vehicle id="vehicle_174" type="DEFAULT_VEHTYPE" depart="212.0686934008653" route="route_0"/>
    <vehicle id="vehicle_175" type="DEFAULT_VEHTYPE" depart="212.99152829620297" route="route_0"/>
    <vehicle id="vehicle_176" type="DEFAULT_VEHTYPE" depart="213.5155376730995" route="route_0"/>
    <vehicle id="vehicle_177" type="DEFAULT_VEHTYPE" depart="213.56732476415192" route="route_0"/>
    <vehicle id="vehicle_178" type="DEFAULT_VEHTYPE" depart="215.17560283899567" route="route_0"/>
    <vehicle id="vehicle_179" type="DEFAULT_VEHTYPE" depart="215.35107501663703" route="route_0"/>
    <vehicle id="vehicle_180" type="DEFAULT_VEHTYPE" depart="215.43890801317636" route="route_0"/>
    <vehicle id="vehicle_181" type="DEFAULT_VEHTYPE" depart="216.56155363620186" route="route_0"/>
    <vehicle id="vehicle_182" type="DEFAULT_VEHTYPE" depart="216.68033794558133" route="route_0"/>
    <vehicle id="vehicle_183" type="DEFAULT_VEHTYPE" depart="217.4495009664837" route="route_0"/>
    <vehicle id="vehicle_184" type="DEFAULT_VEHTYPE" depart="217.93831878571717" route="route_0"/>
    <vehicle id="vehicle_185" type="DEFAULT_VEHTYPE" depart="221.08576085694204" route="route_0"/>
    <vehicle id="vehicle_186" type="DEFAULT_VEHTYPE" depart="221.54261375859346" route="route_0"/>
    <vehicle id="vehicle_187" type="DEFAULT_VEHTYPE" depart="221.63895318353417" route="route_0"/>
    <vehicle id="vehicle_188" type="DEFAULT_VEHTYPE" depart="221.93029603219227" route="route_0"/>
    <vehicle id="vehicle_189" type="DEFAULT_VEHTYPE" depart="222.2403647567572" route="route_0"/>
    <vehicle id="vehicle_190" type="DEFAULT_VEHTYPE" depart="222.83285093209494" route="route_0"/>
    <vehicle id="vehicle_191" type="DEFAULT_VEHTYPE" depart="223.14271614555273" route="route_0"/>
    <vehicle id="vehicle_192" type="DEFAULT_VEHTYPE" depart="223.3848755681728" route="route_0"/>
    <vehicle id="vehicle_193" type="DEFAULT_VEHTYPE" depart="227.3923134002944" route="route_0"/>
    <vehicle id="vehicle_194" type="DEFAULT_VEHTYPE" depart="230.6785277483541" route="route_0"/>
    <vehicle id="vehicle_195" type="DEFAULT_VEHTYPE" depart="230.7424465676999" route="route_0"/>
    <vehicle id="vehicle_196" type="DEFAULT_VEHTYPE" depart="232.22740503062556" route="route_0"/>
    <vehicle id="vehicle_197" type="DEFAULT_VEHTYPE" depart="232.33344873072105" route="route_0"/>
    <vehicle id="vehicle_198" type="DEFAULT_VEHTYPE" depart="235.61759459684492" route="route_0"/>
    <vehicle id="vehicle_199" type="DEFAULT_VEHTYPE" depart="236.6913694436863" route="route_0"/>
    <vehicle id="vehicle_200" type="DEFAULT_VEHTYPE" depart="237.25408884216995" route="route_0"/>
    <vehicle id="vehicle_201" type="DEFAULT_VEHTYPE" depart="238.10222847024667" route="route_0"/>
    <vehicle id="vehicle_202" type="DEFAULT_VEHTYPE" depart="238.96044463949923" route="route_0"/>
    <vehicle id="vehicle_203" type="DEFAULT_VEHTYPE" depart="239.76737604515426" route="route_0"/>
    <vehicle id="vehicle_204" type="DEFAULT_VEHTYPE" depart="240.55431497735495" route="route_0"/>
    <vehicle id="vehicle_205" type="DEFAULT_VEHTYPE" depart="241.4619573337522" route="route_0"/>
    <vehicle id="vehicle_206" type="DEFAULT_VEHTYPE" depart="243.17829010205634" route="route_0"/>
    <vehicle id="vehicle_207" type="DEFAULT_VEHTYPE" depart="246.8134383493071" route="route_0"/>
    <vehicle id="vehicle_208" type="DEFAULT_VEHTYPE" depart="248.57317692048022" route="route_0"/>
    <vehicle id="vehicle_209" type="DEFAULT_VEHTYPE" depart="249.40219181359407" route="route_0"/>
    <vehicle id="vehicle_210" type="DEFAULT_VEHTYPE" depart="249.67344487519648" route="route_0"/>
    <vehicle id="vehicle_211" type="DEFAULT_VEHTYPE" depart="250.0586909474825" route="route_0"/>
    <vehicle id="vehicle_212" type="DEFAULT_VEHTYPE" depart="251.15013800830522" route="route_0"/>
    <vehicle id="vehicle_213" type="DEFAULT_VEHTYPE" depart="251.66579233841378" route="route_0"/>
    <vehicle id="vehicle_214" type="DEFAULT_VEHTYPE" depart="251.8805479909221" route="route_0"/>
    <vehicle id="vehicle_215" type="DEFAULT_VEHTYPE" depart="252.07416620680192" route="route_0"/>
    <vehicle id="vehicle_216" type="DEFAULT_VEHTYPE" depart="252.25298338479308" route="route_0"/>
    <vehicle id="vehicle_217" type="DEFAULT_VEHTYPE" depart="253.9539539425263" route="route_0"/>
    <vehicle id="vehicle_218" type="DEFAULT_VEHTYPE" depart="254.07800758886503" route="route_0"/>
    <vehicle id="vehicle_219" type="DEFAULT_VEHTYPE" depart="254.16783932879858" route="route_0"/>
    <vehicle id="vehicle_220" type="DEFAULT_VEHTYPE" depart="258.09594307430297" route="route_0"/>
    <vehicle id="vehicle_221" type="DEFAULT_VEHTYPE" depart="258.32089226052966" route="route_0"/>
    <vehicle id="vehicle_222" type="DEFAULT_VEHTYPE" depart="258.4476927610534" route="route_0"/>
    <vehicle id="vehicle_223" type="DEFAULT_VEHTYPE" depart="259.2460855635812" route="route_0"/>
    <vehicle id="vehicle_224" type="DEFAULT_VEHTYPE" depart="259.69550936568993" route="route_0"/>
    <vehicle id="vehicle_225" type="DEFAULT_VEHTYPE" depart="262.46190714568803" route="route_0"/>
    <vehicle id="vehicle_226" type="DEFAULT_VEHTYPE" depart="262.9688936188842" route="route_0"/>
    <vehicle id="vehicle_227" type="DEFAULT_VEHTYPE" depart="263.0086047460471" route="route_0"/>
    <vehicle id="vehicle_228" type="DEFAULT_VEHTYPE" depart="263.929702886559" route="route_0"/>
    <vehicle id="vehicle_229" type="DEFAULT_VEHTYPE" depart="267.57338991433807" route="route_0"/>
    <vehicle id="vehicle_230" type="DEFAULT_VEHTYPE" depart="268.22201118544336" route="route_0"/>
    <vehicle id="vehicle_231" type="DEFAULT_VEHTYPE" depart="270.69878911213414" route="route_0"/>
    <vehicle id="vehicle_232" type="DEFAULT_VEHTYPE" depart="270.9935595470603" route="route_0"/>
    <vehicle id="vehicle_233" type="DEFAULT_VEHTYPE" depart="271.62007316678427" route="route_0"/>
    <vehicle id="vehicle_234" type="DEFAULT_VEHTYPE" depart="272.6691376977953" route="route_0"/>
    <vehicle id="vehicle_235" type="DEFAULT_VEHTYPE" depart="272.734917334612" route="route_0"/>
    <vehicle id="vehicle_236" type="DEFAULT_VEHTYPE" depart="273.81703420078475" route="route_0"/>
    <vehicle id="vehicle_237" type="DEFAULT_VEHTYPE" depart="275.28253957262103" route="route_0"/>
    <vehicle id="vehicle_238" type="DEFAULT_VEHTYPE" depart="277.36237724305386" route="route_0"/>
    <vehicle id="vehicle_239" type="DEFAULT_VEHTYPE" depart="277.8350092569735" route="route_0"/>
    <vehicle id="vehicle_240" type="DEFAULT_VEHTYPE" depart="277.9642850719862" route="route_0"/>
    <vehicle id="vehicle_241" type="DEFAULT_VEHTYPE" depart="278.31152661943895" route="route_0"/>
    <vehicle id="vehicle_242" type="DEFAULT_VEHTYPE" depart="279.08786202492405" route="route_0"/>
    <vehicle id="vehicle_243" type="DEFAULT_VEHTYPE" depart="280.36385177364355" route="route_0"/>
    <vehicle id="vehicle_244" type="DEFAULT_VEHTYPE" depart="281.45910544094943" route="route_0"/>
    <vehicle id="vehicle_245" type="DEFAULT_VEHTYPE" depart="281.9137689930301" route="route_0"/>
    <vehicle id="vehicle_246" type="DEFAULT_VEHTYPE" depart="283.40750594351243" route="route_0"/>
    <vehicle id="vehicle_247" type="DEFAULT_VEHTYPE" depart="284.0311058523478" route="route_0"/>
    <vehicle id="vehicle_248" type="DEFAULT_VEHTYPE" depart="284.99170603300325" route="route_0"/>
    <vehicle id="vehicle_249" type="DEFAULT_VEHTYPE" depart="286.1070137463243" route="route_0"/>
    <vehicle id="vehicle_250" type="DEFAULT_VEHTYPE" depart="287.07342770816814" route="route_0"/>
    <vehicle id="vehicle_251" type="DEFAULT_VEHTYPE" depart="287.4773347029366" route="route_0"/>
    <vehicle id="vehicle_252" type="DEFAULT_VEHTYPE" depart="289.4997060499766" route="route_0"/>
    <vehicle id="vehicle_253" type="DEFAULT_VEHTYPE" depart="290.3333587628881" route="route_0"/>
    <vehicle id="vehicle_254" type="DEFAULT_VEHTYPE" depart="292.2599800958558" route="route_0"/>
    <vehicle id="vehicle_255" type="DEFAULT_VEHTYPE" depart="292.94577976922415" route="route_0"/>
    <vehicle id="vehicle_256" type="DEFAULT_VEHTYPE" depart="293.2020759630102" route="route_0"/>
    <vehicle id="vehicle_257" type="DEFAULT_VEHTYPE" depart="293.39508174051554" route="route_0"/>
    <vehicle id="vehicle_258" type="DEFAULT_VEHTYPE" depart="293.8777598941276" route="route_0"/>
    <vehicle id="vehicle_259" type="DEFAULT_VEHTYPE" depart="295.1506676344971" route="route_0"/>
    <vehicle id="vehicle_260" type="DEFAULT_VEHTYPE" depart="296.38810140668437" route="route_0"/>
    <vehicle id="vehicle_261" type="DEFAULT_VEHTYPE" depart="300.0068057286875" route="route_0"/>
    <vehicle id="vehicle_262" type="DEFAULT_VEHTYPE" depart="301.33912373563646" route="route_0"/>
    <vehicle id="vehicle_263" type="DEFAULT_VEHTYPE" depart="301.8830888210664" route="route_0"/>
    <vehicle id="vehicle_264" type="DEFAULT_VEHTYPE" depart="303.84548502663966" route="route_0"/>
    <vehicle id="vehicle_265" type="DEFAULT_VEHTYPE" depart="304.3169542375863" route="route_0"/>
    <vehicle id="vehicle_266" type="DEFAULT_VEHTYPE" depart="306.00260630692867" route="route_0"/>
    <vehicle id="vehicle_267" type="DEFAULT_VEHTYPE" depart="308.26655316457794" route="route_0"/>
    <vehicle id="vehicle_268" type="DEFAULT_VEHTYPE" depart="309.96117517745216" route="route_0"/>
    <vehicle id="vehicle_269" type="DEFAULT_VEHTYPE" depart="311.1436048899992" route="route_0"/>
    <vehicle id="vehicle_270" type="DEFAULT_VEHTYPE" depart="311.3609015472984" route="route_0"/>
    <vehicle id="vehicle_271" type="DEFAULT_VEHTYPE" depart="311.733657959526" route="route_0"/>
    <vehicle id="vehicle_272" type="DEFAULT_VEHTYPE" depart="312.282430757051" route="route_0"/>
    <vehicle id="vehicle_273" type="DEFAULT_VEHTYPE" depart="313.74320457165425" route="route_0"/>
    <vehicle id="vehicle_274" type="DEFAULT_VEHTYPE" depart="313.86359195847984" route="route_0"/>
    <vehicle id="vehicle_275" type="DEFAULT_VEHTYPE" depart="314.95885035506006" route="route_0"/>
    <vehicle id="vehicle_276" type="DEFAULT_VEHTYPE" depart="315.90995501895355" route="route_0"/>
    <vehicle id="vehicle_277" type="DEFAULT_VEHTYPE" depart="319.4108341234047" route="route_0"/>
    <vehicle id="vehicle_278" type="DEFAULT_VEHTYPE" depart="319.55093498732407" route="route_0"/>
    <vehicle id="vehicle_279" type="DEFAULT_VEHTYPE" depart="319.7569865352672" route="route_0"/>
    <vehicle id="vehicle_280" type="DEFAULT_VEHTYPE" depart="321.5731100584351" route="route_0"/>
    <vehicle id="vehicle_281" type="DEFAULT_VEHTYPE" depart="322.418435965433" route="route_0"/>
    <vehicle id="vehicle_282" type="DEFAULT_VEHTYPE" depart="325.31929826651566" route="route_0"/>
    <vehicle id="vehicle_283" type="DEFAULT_VEHTYPE" depart="325.87769610465716" route="route_0"/>
    <vehicle id="vehicle_284" type="DEFAULT_VEHTYPE" depart="327.40879254987584" route="route_0"/>
    <vehicle id="vehicle_285" type="DEFAULT_VEHTYPE" depart="330.31387988499426" route="route_0"/>
    <vehicle id="vehicle_286" type="DEFAULT_VEHTYPE" depart="330.80331255662867" route="route_0"/>
    <vehicle id="vehicle_287" type="DEFAULT_VEHTYPE" depart="331.8086521755067" route="route_0"/>
    <vehicle id="vehicle_288" type="DEFAULT_VEHTYPE" depart="333.16797378494243" route="route_0"/>
    <vehicle id="vehicle_289" type="DEFAULT_VEHTYPE" depart="333.6563481090545" route="route_0"/>
    <vehicle id="vehicle_290" type="DEFAULT_VEHTYPE" depart="334.5544485000089" route="route_0"/>
    <vehicle id="vehicle_291" type="DEFAULT_VEHTYPE" depart="336.0122504968443" route="route_0"/>
    <vehicle id="vehicle_292" type="DEFAULT_VEHTYPE" depart="336.77377329913264" route="route_0"/>
    <vehicle id="vehicle_293" type="DEFAULT_VEHTYPE" depart="337.0167179628195" route="route_0"/>
    <vehicle id="vehicle_294" type="DEFAULT_VEHTYPE" depart="337.76659474098193" route="route_0"/>
    <vehicle id="vehicle_295" type="DEFAULT_VEHTYPE" depart="338.8204345845601" route="route_0"/>
    <vehicle id="vehicle_296" type="DEFAULT_VEHTYPE" depart="339.988460526737" route="route_0"/>
    <vehicle id="vehicle_297" type="DEFAULT_VEHTYPE" depart="341.03939239971345" route="route_0"/>
    <vehicle id="vehicle_298" type="DEFAULT_VEHTYPE" depart="342.56560478613994" route="route_0"/>
    <vehicle id="vehicle_299" type="DEFAULT_VEHTYPE" depart="342.9688937996211" route="route_0"/>
</routes>