<routes>
    <route id="route_0" edges="-319929498#3 -319929498#2"/>

    <route id="route_2" edges="-319929498#3 32038440#11"/>
    <vehicle id="vehicle_0" type="DEFAULT_VEHTYPE" depart="0.00" route="route_0"/>


    <vehicle id="vehicle_3" type="DEFAULT_VEHTYPE" depart="6.00" route="route_2"/>


    <vehicle id="vehicle_8" type="DEFAULT_VEHTYPE" depart="16.00" route="route_2"/>
    <vehicle id="vehicle_10" type="DEFAULT_VEHTYPE" depart="18.00" route="route_0"/>
    <vehicle id="vehicle_11" type="DEFAULT_VEHTYPE" depart="19.00" route="route_2"/>
    <vehicle id="vehicle_12" type="DEFAULT_VEHTYPE" depart="23.00" route="route_0"/>
    <vehicle id="vehicle_13" type="DEFAULT_VEHTYPE" depart="25.00" route="route_0"/>
    <vehicle id="vehicle_15" type="DEFAULT_VEHTYPE" depart="30.00" route="route_2"/>
    <vehicle id="vehicle_16" type="DEFAULT_VEHTYPE" depart="31.00" route="route_0"/>
    <vehicle id="vehicle_17" type="DEFAULT_VEHTYPE" depart="32.00" route="route_2"/>


    <vehicle id="vehicle_18" type="DEFAULT_VEHTYPE" depart="41.0" route="route_0"/>
    <vehicle id="vehicle_19" type="DEFAULT_VEHTYPE" depart="42.0" route="route_0"/>
    <vehicle id="vehicle_20" type="DEFAULT_VEHTYPE" depart="43.0" route="route_2"/>
    <vehicle id="vehicle_21" type="DEFAULT_VEHTYPE" depart="44.0" route="route_2"/>
    <vehicle id="vehicle_22" type="DEFAULT_VEHTYPE" depart="45.0" route="route_0"/>
    <vehicle id="vehicle_23" type="DEFAULT_VEHTYPE" depart="46.0" route="route_0"/>
    <vehicle id="vehicle_24" type="DEFAULT_VEHTYPE" depart="49.0" route="route_2"/>
    <vehicle id="vehicle_25" type="DEFAULT_VEHTYPE" depart="50.0" route="route_0"/>
    <vehicle id="vehicle_26" type="DEFAULT_VEHTYPE" depart="51.0" route="route_2"/>
    <vehicle id="vehicle_27" type="DEFAULT_VEHTYPE" depart="54.0" route="route_2"/>
    <vehicle id="vehicle_28" type="DEFAULT_VEHTYPE" depart="58.0" route="route_0"/>
    <vehicle id="vehicle_29" type="DEFAULT_VEHTYPE" depart="61.0" route="route_2"/>
    <vehicle id="vehicle_30" type="DEFAULT_VEHTYPE" depart="62.0" route="route_0"/>
    <vehicle id="vehicle_31" type="DEFAULT_VEHTYPE" depart="64.0" route="route_2"/>
    <vehicle id="vehicle_32" type="DEFAULT_VEHTYPE" depart="68.0" route="route_0"/>
    <vehicle id="vehicle_33" type="DEFAULT_VEHTYPE" depart="73.0" route="route_0"/>
    <vehicle id="vehicle_34" type="DEFAULT_VEHTYPE" depart="76.0" route="route_2"/>
    <vehicle id="vehicle_35" type="DEFAULT_VEHTYPE" depart="81.0" route="route_0"/>
    <vehicle id="vehicle_36" type="DEFAULT_VEHTYPE" depart="83.0" route="route_0"/>
    <vehicle id="vehicle_37" type="DEFAULT_VEHTYPE" depart="88.0" route="route_2"/>
    <vehicle id="vehicle_38" type="DEFAULT_VEHTYPE" depart="90.0" route="route_0"/>
    <vehicle id="vehicle_39" type="DEFAULT_VEHTYPE" depart="91.0" route="route_0"/>
    <vehicle id="vehicle_40" type="DEFAULT_VEHTYPE" depart="95.0" route="route_2"/>
    <vehicle id="vehicle_41" type="DEFAULT_VEHTYPE" depart="98.0" route="route_0"/>
    <vehicle id="vehicle_42" type="DEFAULT_VEHTYPE" depart="101.0" route="route_2"/>
    <vehicle id="vehicle_43" type="DEFAULT_VEHTYPE" depart="103.0" route="route_2"/>
    <vehicle id="vehicle_44" type="DEFAULT_VEHTYPE" depart="105.0" route="route_2"/>
    <vehicle id="vehicle_45" type="DEFAULT_VEHTYPE" depart="106.0" route="route_2"/>
    <vehicle id="vehicle_46" type="DEFAULT_VEHTYPE" depart="110.0" route="route_0"/>
    <vehicle id="vehicle_47" type="DEFAULT_VEHTYPE" depart="112.0" route="route_0"/>
    <vehicle id="vehicle_48" type="DEFAULT_VEHTYPE" depart="114.0" route="route_0"/>
    <vehicle id="vehicle_49" type="DEFAULT_VEHTYPE" depart="118.0" route="route_2"/>
    <vehicle id="vehicle_50" type="DEFAULT_VEHTYPE" depart="122.0" route="route_0"/>
    <vehicle id="vehicle_51" type="DEFAULT_VEHTYPE" depart="126.0" route="route_2"/>
    <vehicle id="vehicle_52" type="DEFAULT_VEHTYPE" depart="128.0" route="route_0"/>
    <vehicle id="vehicle_53" type="DEFAULT_VEHTYPE" depart="132.0" route="route_2"/>
    <vehicle id="vehicle_54" type="DEFAULT_VEHTYPE" depart="136.0" route="route_2"/>
    <vehicle id="vehicle_55" type="DEFAULT_VEHTYPE" depart="139.0" route="route_2"/>
    <vehicle id="vehicle_56" type="DEFAULT_VEHTYPE" depart="140.0" route="route_0"/>
    <vehicle id="vehicle_57" type="DEFAULT_VEHTYPE" depart="144.0" route="route_0"/>
    <vehicle id="vehicle_58" type="DEFAULT_VEHTYPE" depart="149.0" route="route_0"/>
    <vehicle id="vehicle_59" type="DEFAULT_VEHTYPE" depart="151.0" route="route_2"/>
    <vehicle id="vehicle_60" type="DEFAULT_VEHTYPE" depart="153.0" route="route_0"/>
    <vehicle id="vehicle_61" type="DEFAULT_VEHTYPE" depart="155.0" route="route_2"/>
    <vehicle id="vehicle_62" type="DEFAULT_VEHTYPE" depart="160.0" route="route_2"/>
    <vehicle id="vehicle_63" type="DEFAULT_VEHTYPE" depart="163.0" route="route_2"/>
    <vehicle id="vehicle_64" type="DEFAULT_VEHTYPE" depart="168.0" route="route_2"/>
    <vehicle id="vehicle_65" type="DEFAULT_VEHTYPE" depart="173.0" route="route_2"/>
    <vehicle id="vehicle_66" type="DEFAULT_VEHTYPE" depart="174.0" route="route_2"/>
    <vehicle id="vehicle_67" type="DEFAULT_VEHTYPE" depart="175.0" route="route_0"/>
    <vehicle id="vehicle_68" type="DEFAULT_VEHTYPE" depart="180.0" route="route_2"/>
    <vehicle id="vehicle_69" type="DEFAULT_VEHTYPE" depart="185.0" route="route_2"/>
    <vehicle id="vehicle_70" type="DEFAULT_VEHTYPE" depart="190.0" route="route_0"/>
    <vehicle id="vehicle_71" type="DEFAULT_VEHTYPE" depart="195.0" route="route_2"/>
    <vehicle id="vehicle_72" type="DEFAULT_VEHTYPE" depart="197.0" route="route_0"/>
    <vehicle id="vehicle_73" type="DEFAULT_VEHTYPE" depart="201.0" route="route_2"/>
    <vehicle id="vehicle_74" type="DEFAULT_VEHTYPE" depart="203.0" route="route_0"/>
    <vehicle id="vehicle_75" type="DEFAULT_VEHTYPE" depart="207.0" route="route_0"/>
    <vehicle id="vehicle_76" type="DEFAULT_VEHTYPE" depart="208.0" route="route_0"/>
    <vehicle id="vehicle_77" type="DEFAULT_VEHTYPE" depart="212.0" route="route_0"/>
    <vehicle id="vehicle_78" type="DEFAULT_VEHTYPE" depart="213.0" route="route_0"/>
    <vehicle id="vehicle_79" type="DEFAULT_VEHTYPE" depart="218.0" route="route_2"/>
    <vehicle id="vehicle_80" type="DEFAULT_VEHTYPE" depart="221.0" route="route_2"/>
    <vehicle id="vehicle_81" type="DEFAULT_VEHTYPE" depart="225.0" route="route_2"/>
    <vehicle id="vehicle_82" type="DEFAULT_VEHTYPE" depart="230.0" route="route_0"/>
    <vehicle id="vehicle_83" type="DEFAULT_VEHTYPE" depart="231.0" route="route_2"/>
    <vehicle id="vehicle_84" type="DEFAULT_VEHTYPE" depart="233.0" route="route_2"/>
    <vehicle id="vehicle_85" type="DEFAULT_VEHTYPE" depart="238.0" route="route_0"/>
    <vehicle id="vehicle_86" type="DEFAULT_VEHTYPE" depart="243.0" route="route_2"/>
    <vehicle id="vehicle_87" type="DEFAULT_VEHTYPE" depart="245.0" route="route_0"/>
    <vehicle id="vehicle_88" type="DEFAULT_VEHTYPE" depart="246.0" route="route_2"/>
    <vehicle id="vehicle_89" type="DEFAULT_VEHTYPE" depart="249.0" route="route_0"/>
    <vehicle id="vehicle_90" type="DEFAULT_VEHTYPE" depart="254.0" route="route_0"/>
    <vehicle id="vehicle_91" type="DEFAULT_VEHTYPE" depart="258.0" route="route_0"/>
    <vehicle id="vehicle_92" type="DEFAULT_VEHTYPE" depart="260.0" route="route_0"/>
    <vehicle id="vehicle_93" type="DEFAULT_VEHTYPE" depart="265.0" route="route_2"/>
    <vehicle id="vehicle_94" type="DEFAULT_VEHTYPE" depart="269.0" route="route_2"/>
    <vehicle id="vehicle_95" type="DEFAULT_VEHTYPE" depart="273.0" route="route_0"/>
    <vehicle id="vehicle_96" type="DEFAULT_VEHTYPE" depart="277.0" route="route_2"/>
    <vehicle id="vehicle_97" type="DEFAULT_VEHTYPE" depart="279.0" route="route_2"/>
    <vehicle id="vehicle_98" type="DEFAULT_VEHTYPE" depart="280.0" route="route_0"/>
    <vehicle id="vehicle_99" type="DEFAULT_VEHTYPE" depart="285.0" route="route_2"/>
    <vehicle id="vehicle_100" type="DEFAULT_VEHTYPE" depart="288.0" route="route_0"/>
    <vehicle id="vehicle_101" type="DEFAULT_VEHTYPE" depart="290.0" route="route_2"/>
    <vehicle id="vehicle_102" type="DEFAULT_VEHTYPE" depart="292.0" route="route_2"/>
    <vehicle id="vehicle_103" type="DEFAULT_VEHTYPE" depart="296.0" route="route_0"/>
    <vehicle id="vehicle_104" type="DEFAULT_VEHTYPE" depart="297.0" route="route_2"/>
    <vehicle id="vehicle_105" type="DEFAULT_VEHTYPE" depart="302.0" route="route_2"/>
    <vehicle id="vehicle_106" type="DEFAULT_VEHTYPE" depart="303.0" route="route_0"/>
    <vehicle id="vehicle_107" type="DEFAULT_VEHTYPE" depart="306.0" route="route_0"/>
    <vehicle id="vehicle_108" type="DEFAULT_VEHTYPE" depart="309.0" route="route_0"/>
    <vehicle id="vehicle_109" type="DEFAULT_VEHTYPE" depart="310.0" route="route_2"/>
    <vehicle id="vehicle_110" type="DEFAULT_VEHTYPE" depart="315.0" route="route_0"/>
    <vehicle id="vehicle_111" type="DEFAULT_VEHTYPE" depart="318.0" route="route_0"/>
    <vehicle id="vehicle_112" type="DEFAULT_VEHTYPE" depart="323.0" route="route_0"/>
    <vehicle id="vehicle_113" type="DEFAULT_VEHTYPE" depart="325.0" route="route_0"/>
    <vehicle id="vehicle_114" type="DEFAULT_VEHTYPE" depart="328.0" route="route_2"/>
    <vehicle id="vehicle_115" type="DEFAULT_VEHTYPE" depart="331.0" route="route_2"/>
    <vehicle id="vehicle_116" type="DEFAULT_VEHTYPE" depart="332.0" route="route_0"/>
    <vehicle id="vehicle_117" type="DEFAULT_VEHTYPE" depart="334.0" route="route_0"/>
    <vehicle id="vehicle_118" type="DEFAULT_VEHTYPE" depart="339.0" route="route_0"/>
    <vehicle id="vehicle_119" type="DEFAULT_VEHTYPE" depart="342.0" route="route_2"/>
    <vehicle id="vehicle_120" type="DEFAULT_VEHTYPE" depart="346.0" route="route_2"/>
    <vehicle id="vehicle_121" type="DEFAULT_VEHTYPE" depart="349.0" route="route_0"/>
    <vehicle id="vehicle_122" type="DEFAULT_VEHTYPE" depart="350.0" route="route_0"/>
    <vehicle id="vehicle_123" type="DEFAULT_VEHTYPE" depart="353.0" route="route_0"/>
    <vehicle id="vehicle_124" type="DEFAULT_VEHTYPE" depart="356.0" route="route_2"/>
    <vehicle id="vehicle_125" type="DEFAULT_VEHTYPE" depart="360.0" route="route_2"/>
    <vehicle id="vehicle_126" type="DEFAULT_VEHTYPE" depart="362.0" route="route_0"/>
    <vehicle id="vehicle_127" type="DEFAULT_VEHTYPE" depart="365.0" route="route_0"/>
    <vehicle id="vehicle_128" type="DEFAULT_VEHTYPE" depart="369.0" route="route_0"/>
    <vehicle id="vehicle_129" type="DEFAULT_VEHTYPE" depart="370.0" route="route_0"/>
    <vehicle id="vehicle_130" type="DEFAULT_VEHTYPE" depart="372.0" route="route_0"/>
    <vehicle id="vehicle_131" type="DEFAULT_VEHTYPE" depart="373.0" route="route_2"/>
    <vehicle id="vehicle_132" type="DEFAULT_VEHTYPE" depart="378.0" route="route_0"/>
    <vehicle id="vehicle_133" type="DEFAULT_VEHTYPE" depart="382.0" route="route_2"/>
    <vehicle id="vehicle_134" type="DEFAULT_VEHTYPE" depart="383.0" route="route_2"/>
    <vehicle id="vehicle_135" type="DEFAULT_VEHTYPE" depart="385.0" route="route_2"/>
    <vehicle id="vehicle_136" type="DEFAULT_VEHTYPE" depart="390.0" route="route_0"/>
    <vehicle id="vehicle_137" type="DEFAULT_VEHTYPE" depart="395.0" route="route_0"/>
    <vehicle id="vehicle_138" type="DEFAULT_VEHTYPE" depart="399.0" route="route_0"/>
    <vehicle id="vehicle_139" type="DEFAULT_VEHTYPE" depart="402.0" route="route_0"/>
    <vehicle id="vehicle_140" type="DEFAULT_VEHTYPE" depart="404.0" route="route_2"/>
    <vehicle id="vehicle_141" type="DEFAULT_VEHTYPE" depart="405.0" route="route_0"/>
    <vehicle id="vehicle_142" type="DEFAULT_VEHTYPE" depart="408.0" route="route_2"/>
    <vehicle id="vehicle_143" type="DEFAULT_VEHTYPE" depart="409.0" route="route_2"/>
    <vehicle id="vehicle_144" type="DEFAULT_VEHTYPE" depart="414.0" route="route_2"/>
    <vehicle id="vehicle_145" type="DEFAULT_VEHTYPE" depart="418.0" route="route_0"/>
    <vehicle id="vehicle_146" type="DEFAULT_VEHTYPE" depart="422.0" route="route_0"/>
    <vehicle id="vehicle_147" type="DEFAULT_VEHTYPE" depart="425.0" route="route_0"/>
    <vehicle id="vehicle_148" type="DEFAULT_VEHTYPE" depart="428.0" route="route_2"/>
    <vehicle id="vehicle_149" type="DEFAULT_VEHTYPE" depart="430.0" route="route_2"/>
    <vehicle id="vehicle_150" type="DEFAULT_VEHTYPE" depart="434.0" route="route_2"/>
    <vehicle id="vehicle_151" type="DEFAULT_VEHTYPE" depart="436.0" route="route_0"/>
    <vehicle id="vehicle_152" type="DEFAULT_VEHTYPE" depart="441.0" route="route_2"/>
    <vehicle id="vehicle_153" type="DEFAULT_VEHTYPE" depart="444.0" route="route_2"/>
    <vehicle id="vehicle_154" type="DEFAULT_VEHTYPE" depart="446.0" route="route_0"/>
    <vehicle id="vehicle_155" type="DEFAULT_VEHTYPE" depart="451.0" route="route_2"/>
    <vehicle id="vehicle_156" type="DEFAULT_VEHTYPE" depart="453.0" route="route_0"/>
    <vehicle id="vehicle_157" type="DEFAULT_VEHTYPE" depart="454.0" route="route_2"/>
    <vehicle id="vehicle_158" type="DEFAULT_VEHTYPE" depart="456.0" route="route_2"/>
    <vehicle id="vehicle_159" type="DEFAULT_VEHTYPE" depart="458.0" route="route_0"/>
    <vehicle id="vehicle_160" type="DEFAULT_VEHTYPE" depart="460.0" route="route_0"/>
    <vehicle id="vehicle_161" type="DEFAULT_VEHTYPE" depart="462.0" route="route_2"/>
    <vehicle id="vehicle_162" type="DEFAULT_VEHTYPE" depart="467.0" route="route_2"/>
    <vehicle id="vehicle_163" type="DEFAULT_VEHTYPE" depart="472.0" route="route_0"/>
    <vehicle id="vehicle_164" type="DEFAULT_VEHTYPE" depart="474.0" route="route_0"/>
    <vehicle id="vehicle_165" type="DEFAULT_VEHTYPE" depart="478.0" route="route_0"/>
    <vehicle id="vehicle_166" type="DEFAULT_VEHTYPE" depart="482.0" route="route_0"/>
    <vehicle id="vehicle_167" type="DEFAULT_VEHTYPE" depart="484.0" route="route_0"/>
    <vehicle id="vehicle_168" type="DEFAULT_VEHTYPE" depart="485.0" route="route_0"/>
    <vehicle id="vehicle_169" type="DEFAULT_VEHTYPE" depart="490.0" route="route_0"/>
    <vehicle id="vehicle_170" type="DEFAULT_VEHTYPE" depart="494.0" route="route_2"/>
    <vehicle id="vehicle_171" type="DEFAULT_VEHTYPE" depart="496.0" route="route_0"/>
    <vehicle id="vehicle_172" type="DEFAULT_VEHTYPE" depart="500.0" route="route_2"/>
    <vehicle id="vehicle_173" type="DEFAULT_VEHTYPE" depart="502.0" route="route_0"/>
    <vehicle id="vehicle_174" type="DEFAULT_VEHTYPE" depart="504.0" route="route_0"/>
    <vehicle id="vehicle_175" type="DEFAULT_VEHTYPE" depart="508.0" route="route_0"/>
    <vehicle id="vehicle_176" type="DEFAULT_VEHTYPE" depart="510.0" route="route_2"/>
    <vehicle id="vehicle_177" type="DEFAULT_VEHTYPE" depart="514.0" route="route_0"/>
    <vehicle id="vehicle_178" type="DEFAULT_VEHTYPE" depart="519.0" route="route_0"/>
    <vehicle id="vehicle_179" type="DEFAULT_VEHTYPE" depart="524.0" route="route_2"/>
    <vehicle id="vehicle_180" type="DEFAULT_VEHTYPE" depart="526.0" route="route_2"/>
    <vehicle id="vehicle_181" type="DEFAULT_VEHTYPE" depart="528.0" route="route_2"/>
    <vehicle id="vehicle_182" type="DEFAULT_VEHTYPE" depart="532.0" route="route_0"/>
    <vehicle id="vehicle_183" type="DEFAULT_VEHTYPE" depart="534.0" route="route_2"/>
    <vehicle id="vehicle_184" type="DEFAULT_VEHTYPE" depart="536.0" route="route_0"/>
    <vehicle id="vehicle_185" type="DEFAULT_VEHTYPE" depart="538.0" route="route_0"/>
    <vehicle id="vehicle_186" type="DEFAULT_VEHTYPE" depart="540.0" route="route_0"/>
    <vehicle id="vehicle_187" type="DEFAULT_VEHTYPE" depart="544.0" route="route_0"/>
    <vehicle id="vehicle_188" type="DEFAULT_VEHTYPE" depart="545.0" route="route_2"/>
    <vehicle id="vehicle_189" type="DEFAULT_VEHTYPE" depart="550.0" route="route_2"/>
    <vehicle id="vehicle_190" type="DEFAULT_VEHTYPE" depart="553.0" route="route_2"/>
    <vehicle id="vehicle_191" type="DEFAULT_VEHTYPE" depart="554.0" route="route_2"/>
    <vehicle id="vehicle_192" type="DEFAULT_VEHTYPE" depart="558.0" route="route_2"/>
    <vehicle id="vehicle_193" type="DEFAULT_VEHTYPE" depart="559.0" route="route_2"/>
    <vehicle id="vehicle_194" type="DEFAULT_VEHTYPE" depart="561.0" route="route_0"/>
    <vehicle id="vehicle_195" type="DEFAULT_VEHTYPE" depart="565.0" route="route_0"/>
    <vehicle id="vehicle_196" type="DEFAULT_VEHTYPE" depart="568.0" route="route_2"/>
    <vehicle id="vehicle_197" type="DEFAULT_VEHTYPE" depart="573.0" route="route_2"/>
    <vehicle id="vehicle_198" type="DEFAULT_VEHTYPE" depart="578.0" route="route_2"/>
    <vehicle id="vehicle_199" type="DEFAULT_VEHTYPE" depart="580.0" route="route_2"/>
    <vehicle id="vehicle_200" type="DEFAULT_VEHTYPE" depart="584.0" route="route_0"/>
    <vehicle id="vehicle_201" type="DEFAULT_VEHTYPE" depart="587.0" route="route_0"/>
    <vehicle id="vehicle_202" type="DEFAULT_VEHTYPE" depart="588.0" route="route_0"/>
    <vehicle id="vehicle_203" type="DEFAULT_VEHTYPE" depart="591.0" route="route_0"/>
    <vehicle id="vehicle_204" type="DEFAULT_VEHTYPE" depart="592.0" route="route_2"/>
    <vehicle id="vehicle_205" type="DEFAULT_VEHTYPE" depart="596.0" route="route_2"/>
    <vehicle id="vehicle_206" type="DEFAULT_VEHTYPE" depart="601.0" route="route_2"/>
    <vehicle id="vehicle_207" type="DEFAULT_VEHTYPE" depart="604.0" route="route_2"/>
    <vehicle id="vehicle_208" type="DEFAULT_VEHTYPE" depart="609.0" route="route_0"/>
    <vehicle id="vehicle_209" type="DEFAULT_VEHTYPE" depart="613.0" route="route_0"/>
    <vehicle id="vehicle_210" type="DEFAULT_VEHTYPE" depart="615.0" route="route_0"/>
    <vehicle id="vehicle_211" type="DEFAULT_VEHTYPE" depart="617.0" route="route_2"/>
    <vehicle id="vehicle_212" type="DEFAULT_VEHTYPE" depart="620.0" route="route_0"/>
    <vehicle id="vehicle_213" type="DEFAULT_VEHTYPE" depart="622.0" route="route_2"/>
    <vehicle id="vehicle_214" type="DEFAULT_VEHTYPE" depart="626.0" route="route_0"/>
    <vehicle id="vehicle_215" type="DEFAULT_VEHTYPE" depart="630.0" route="route_2"/>
    <vehicle id="vehicle_216" type="DEFAULT_VEHTYPE" depart="633.0" route="route_0"/>
    <vehicle id="vehicle_217" type="DEFAULT_VEHTYPE" depart="638.0" route="route_2"/>
    <vehicle id="vehicle_218" type="DEFAULT_VEHTYPE" depart="641.0" route="route_2"/>
    <vehicle id="vehicle_219" type="DEFAULT_VEHTYPE" depart="644.0" route="route_0"/>
    <vehicle id="vehicle_220" type="DEFAULT_VEHTYPE" depart="645.0" route="route_2"/>
    <vehicle id="vehicle_221" type="DEFAULT_VEHTYPE" depart="647.0" route="route_2"/>
    <vehicle id="vehicle_222" type="DEFAULT_VEHTYPE" depart="648.0" route="route_0"/>
    <vehicle id="vehicle_223" type="DEFAULT_VEHTYPE" depart="650.0" route="route_0"/>
    <vehicle id="vehicle_224" type="DEFAULT_VEHTYPE" depart="653.0" route="route_0"/>
    <vehicle id="vehicle_225" type="DEFAULT_VEHTYPE" depart="657.0" route="route_2"/>
    <vehicle id="vehicle_226" type="DEFAULT_VEHTYPE" depart="658.0" route="route_2"/>
    <vehicle id="vehicle_227" type="DEFAULT_VEHTYPE" depart="660.0" route="route_2"/>
    <vehicle id="vehicle_228" type="DEFAULT_VEHTYPE" depart="664.0" route="route_0"/>
    <vehicle id="vehicle_229" type="DEFAULT_VEHTYPE" depart="666.0" route="route_2"/>
    <vehicle id="vehicle_230" type="DEFAULT_VEHTYPE" depart="669.0" route="route_2"/>
    <vehicle id="vehicle_231" type="DEFAULT_VEHTYPE" depart="671.0" route="route_0"/>
    <vehicle id="vehicle_232" type="DEFAULT_VEHTYPE" depart="674.0" route="route_0"/>
    <vehicle id="vehicle_233" type="DEFAULT_VEHTYPE" depart="678.0" route="route_0"/>
    <vehicle id="vehicle_234" type="DEFAULT_VEHTYPE" depart="682.0" route="route_2"/>
    <vehicle id="vehicle_235" type="DEFAULT_VEHTYPE" depart="683.0" route="route_0"/>
    <vehicle id="vehicle_236" type="DEFAULT_VEHTYPE" depart="688.0" route="route_2"/>
    <vehicle id="vehicle_237" type="DEFAULT_VEHTYPE" depart="693.0" route="route_0"/>
    <vehicle id="vehicle_238" type="DEFAULT_VEHTYPE" depart="695.0" route="route_2"/>
    <vehicle id="vehicle_239" type="DEFAULT_VEHTYPE" depart="699.0" route="route_0"/>
    <vehicle id="vehicle_240" type="DEFAULT_VEHTYPE" depart="703.0" route="route_2"/>
    <vehicle id="vehicle_241" type="DEFAULT_VEHTYPE" depart="704.0" route="route_0"/>
    <vehicle id="vehicle_242" type="DEFAULT_VEHTYPE" depart="709.0" route="route_0"/>
    <vehicle id="vehicle_243" type="DEFAULT_VEHTYPE" depart="714.0" route="route_0"/>
    <vehicle id="vehicle_244" type="DEFAULT_VEHTYPE" depart="715.0" route="route_0"/>
    <vehicle id="vehicle_245" type="DEFAULT_VEHTYPE" depart="717.0" route="route_2"/>
    <vehicle id="vehicle_246" type="DEFAULT_VEHTYPE" depart="721.0" route="route_2"/>
    <vehicle id="vehicle_247" type="DEFAULT_VEHTYPE" depart="725.0" route="route_2"/>
    <vehicle id="vehicle_248" type="DEFAULT_VEHTYPE" depart="728.0" route="route_0"/>
    <vehicle id="vehicle_249" type="DEFAULT_VEHTYPE" depart="733.0" route="route_0"/>
    <vehicle id="vehicle_250" type="DEFAULT_VEHTYPE" depart="736.0" route="route_2"/>
    <vehicle id="vehicle_251" type="DEFAULT_VEHTYPE" depart="737.0" route="route_2"/>
    <vehicle id="vehicle_252" type="DEFAULT_VEHTYPE" depart="741.0" route="route_0"/>
    <vehicle id="vehicle_253" type="DEFAULT_VEHTYPE" depart="743.0" route="route_2"/>
    <vehicle id="vehicle_254" type="DEFAULT_VEHTYPE" depart="746.0" route="route_2"/>
    <vehicle id="vehicle_255" type="DEFAULT_VEHTYPE" depart="747.0" route="route_2"/>
    <vehicle id="vehicle_256" type="DEFAULT_VEHTYPE" depart="751.0" route="route_2"/>
    <vehicle id="vehicle_257" type="DEFAULT_VEHTYPE" depart="754.0" route="route_2"/>
    <vehicle id="vehicle_258" type="DEFAULT_VEHTYPE" depart="755.0" route="route_2"/>
    <vehicle id="vehicle_259" type="DEFAULT_VEHTYPE" depart="759.0" route="route_2"/>
    <vehicle id="vehicle_260" type="DEFAULT_VEHTYPE" depart="764.0" route="route_2"/>
    <vehicle id="vehicle_261" type="DEFAULT_VEHTYPE" depart="769.0" route="route_2"/>
    <vehicle id="vehicle_262" type="DEFAULT_VEHTYPE" depart="770.0" route="route_2"/>
    <vehicle id="vehicle_263" type="DEFAULT_VEHTYPE" depart="773.0" route="route_2"/>
    <vehicle id="vehicle_264" type="DEFAULT_VEHTYPE" depart="774.0" route="route_2"/>
    <vehicle id="vehicle_265" type="DEFAULT_VEHTYPE" depart="777.0" route="route_2"/>
    <vehicle id="vehicle_266" type="DEFAULT_VEHTYPE" depart="778.0" route="route_0"/>
    <vehicle id="vehicle_267" type="DEFAULT_VEHTYPE" depart="781.0" route="route_2"/>
    <vehicle id="vehicle_268" type="DEFAULT_VEHTYPE" depart="784.0" route="route_2"/>
    <vehicle id="vehicle_269" type="DEFAULT_VEHTYPE" depart="786.0" route="route_2"/>
    <vehicle id="vehicle_270" type="DEFAULT_VEHTYPE" depart="789.0" route="route_2"/>
    <vehicle id="vehicle_271" type="DEFAULT_VEHTYPE" depart="792.0" route="route_0"/>
    <vehicle id="vehicle_272" type="DEFAULT_VEHTYPE" depart="793.0" route="route_2"/>
    <vehicle id="vehicle_273" type="DEFAULT_VEHTYPE" depart="796.0" route="route_2"/>
    <vehicle id="vehicle_274" type="DEFAULT_VEHTYPE" depart="799.0" route="route_0"/>
    <vehicle id="vehicle_275" type="DEFAULT_VEHTYPE" depart="803.0" route="route_2"/>
    <vehicle id="vehicle_276" type="DEFAULT_VEHTYPE" depart="808.0" route="route_2"/>
    <vehicle id="vehicle_277" type="DEFAULT_VEHTYPE" depart="809.0" route="route_0"/>
    <vehicle id="vehicle_278" type="DEFAULT_VEHTYPE" depart="810.0" route="route_2"/>
    <vehicle id="vehicle_279" type="DEFAULT_VEHTYPE" depart="812.0" route="route_2"/>
    <vehicle id="vehicle_280" type="DEFAULT_VEHTYPE" depart="814.0" route="route_0"/>
    <vehicle id="vehicle_281" type="DEFAULT_VEHTYPE" depart="816.0" route="route_2"/>
    <vehicle id="vehicle_282" type="DEFAULT_VEHTYPE" depart="819.0" route="route_2"/>
    <vehicle id="vehicle_283" type="DEFAULT_VEHTYPE" depart="823.0" route="route_2"/>
    <vehicle id="vehicle_284" type="DEFAULT_VEHTYPE" depart="828.0" route="route_2"/>
    <vehicle id="vehicle_285" type="DEFAULT_VEHTYPE" depart="829.0" route="route_0"/>
    <vehicle id="vehicle_286" type="DEFAULT_VEHTYPE" depart="834.0" route="route_2"/>
    <vehicle id="vehicle_287" type="DEFAULT_VEHTYPE" depart="836.0" route="route_0"/>
    <vehicle id="vehicle_288" type="DEFAULT_VEHTYPE" depart="840.0" route="route_0"/>
    <vehicle id="vehicle_289" type="DEFAULT_VEHTYPE" depart="842.0" route="route_0"/>
    <vehicle id="vehicle_290" type="DEFAULT_VEHTYPE" depart="843.0" route="route_0"/>
    <vehicle id="vehicle_291" type="DEFAULT_VEHTYPE" depart="844.0" route="route_2"/>
    <vehicle id="vehicle_292" type="DEFAULT_VEHTYPE" depart="846.0" route="route_2"/>
    <vehicle id="vehicle_293" type="DEFAULT_VEHTYPE" depart="847.0" route="route_0"/>
    <vehicle id="vehicle_294" type="DEFAULT_VEHTYPE" depart="849.0" route="route_2"/>
    <vehicle id="vehicle_295" type="DEFAULT_VEHTYPE" depart="850.0" route="route_0"/>
    <vehicle id="vehicle_296" type="DEFAULT_VEHTYPE" depart="851.0" route="route_0"/>
    <vehicle id="vehicle_297" type="DEFAULT_VEHTYPE" depart="856.0" route="route_2"/>
    <vehicle id="vehicle_298" type="DEFAULT_VEHTYPE" depart="860.0" route="route_0"/>
    <vehicle id="vehicle_299" type="DEFAULT_VEHTYPE" depart="864.0" route="route_2"/>
</routes>