<additional>
    <vType id="pkw" vClass="passenger" speedDev="0.1" length="4.3" minGap="1.5"/>
</additional>
